file 401659 1514760574                                          
version 2
run WithoutChannelSwitching-0-20171231-20:48:27-5996
attr configname WithoutChannelSwitching
attr datetime 20171231-20:48:27
attr experiment WithoutChannelSwitching
attr inifile omnetpp.ini
attr iterationvars ""
attr iterationvarsf ""
attr measurement ""
attr network RSUExampleScenario
attr processid 5996
attr repetition 0
attr replication #0
attr resultdir results
attr runnumber 0
attr seedset 0
param **.debug false
param **.coreDebug false
param *.playgroundSizeX 20000m
param *.playgroundSizeY 20000m
param *.playgroundSizeZ 50m
param *.annotations.draw true
param *.manager.updateInterval 1s
param *.manager.host "\"localhost\""
param *.manager.port 9999
param *.manager.autoShutdown true
param *.manager.launchConfig "xmldoc(\"osm.launch.xml\")"
param *.rsu[0].mobility.x 2000
param *.rsu[0].mobility.y 2000
param *.rsu[0].mobility.z 3
param *.rsu[*].applType "\"TraCIDemoRSU11p\""
param *.rsu[*].appl.headerLength "80 bit"
param *.rsu[*].appl.sendBeacons true
param *.rsu[*].appl.dataOnSch false
param *.rsu[*].appl.beaconInterval 1s
param *.rsu[*].appl.beaconUserPriority 7
param *.rsu[*].appl.dataUserPriority 5
param *.connectionManager.sendDirect true
param *.connectionManager.maxInterfDist 2600m
param *.connectionManager.drawMaxIntfDist false
param *.**.nic.mac1609_4.useServiceChannel false
param *.**.nic.mac1609_4.txPower 20mW
param *.**.nic.mac1609_4.bitrate 6Mbps
param *.**.nic.phy80211p.sensitivity -89dBm
param *.**.nic.phy80211p.useThermalNoise true
param *.**.nic.phy80211p.thermalNoise -110dBm
param *.**.nic.phy80211p.decider "xmldoc(\"config.xml\")"
param *.**.nic.phy80211p.analogueModels "xmldoc(\"config.xml\")"
param *.**.nic.phy80211p.usePropagationDelay true
param *.**.nic.phy80211p.antenna "xmldoc(\"antenna.xml\", \"/root/Antenna[@id='monopole']\")"
param *.node[*].applType "\"TraCIDemo11p\""
param *.node[*].appl.headerLength "80 bit"
param *.node[*].appl.sendBeacons true
param *.node[*].appl.dataOnSch false
param *.node[*].appl.beaconInterval 1s
param *.node[*].veinsmobilityType.debug true
param *.node[*].veinsmobility.x 0
param *.node[*].veinsmobility.y 0
param *.node[*].veinsmobility.z 1.895
param *.node[*0].veinsmobility.accidentCount 1
param *.node[*0].veinsmobility.accidentStart 75s
param *.node[*0].veinsmobility.accidentDuration 50s

vector 0 RSUExampleScenario.node[0].veinsmobility posx ETV
vector 1 RSUExampleScenario.node[0].veinsmobility posy ETV
vector 2 RSUExampleScenario.node[1].veinsmobility posx ETV
vector 3 RSUExampleScenario.node[1].veinsmobility posy ETV
vector 4 RSUExampleScenario.node[2].veinsmobility posx ETV
vector 5 RSUExampleScenario.node[2].veinsmobility posy ETV
vector 6 RSUExampleScenario.node[3].veinsmobility posx ETV
vector 7 RSUExampleScenario.node[3].veinsmobility posy ETV
vector 8 RSUExampleScenario.node[4].veinsmobility posx ETV
vector 9 RSUExampleScenario.node[4].veinsmobility posy ETV
vector 10 RSUExampleScenario.node[5].veinsmobility posx ETV
vector 11 RSUExampleScenario.node[5].veinsmobility posy ETV
vector 12 RSUExampleScenario.node[6].veinsmobility posx ETV
vector 13 RSUExampleScenario.node[6].veinsmobility posy ETV
vector 14 RSUExampleScenario.node[7].veinsmobility posx ETV
vector 15 RSUExampleScenario.node[7].veinsmobility posy ETV
vector 16 RSUExampleScenario.node[8].veinsmobility posx ETV
vector 17 RSUExampleScenario.node[8].veinsmobility posy ETV
vector 18 RSUExampleScenario.node[9].veinsmobility posx ETV
vector 19 RSUExampleScenario.node[9].veinsmobility posy ETV
vector 20 RSUExampleScenario.node[10].veinsmobility posx ETV
vector 21 RSUExampleScenario.node[10].veinsmobility posy ETV
vector 22 RSUExampleScenario.node[11].veinsmobility posx ETV
vector 23 RSUExampleScenario.node[11].veinsmobility posy ETV
vector 24 RSUExampleScenario.node[12].veinsmobility posx ETV
vector 25 RSUExampleScenario.node[12].veinsmobility posy ETV
vector 26 RSUExampleScenario.node[13].veinsmobility posx ETV
vector 27 RSUExampleScenario.node[13].veinsmobility posy ETV
vector 28 RSUExampleScenario.node[14].veinsmobility posx ETV
vector 29 RSUExampleScenario.node[14].veinsmobility posy ETV
vector 30 RSUExampleScenario.node[15].veinsmobility posx ETV
vector 31 RSUExampleScenario.node[15].veinsmobility posy ETV
vector 32 RSUExampleScenario.node[16].veinsmobility posx ETV
vector 33 RSUExampleScenario.node[16].veinsmobility posy ETV
vector 34 RSUExampleScenario.node[17].veinsmobility posx ETV
vector 35 RSUExampleScenario.node[17].veinsmobility posy ETV
vector 36 RSUExampleScenario.node[18].veinsmobility posx ETV
vector 37 RSUExampleScenario.node[18].veinsmobility posy ETV
vector 38 RSUExampleScenario.node[19].veinsmobility posx ETV
vector 39 RSUExampleScenario.node[19].veinsmobility posy ETV
vector 40 RSUExampleScenario.node[20].veinsmobility posx ETV
vector 41 RSUExampleScenario.node[20].veinsmobility posy ETV
vector 42 RSUExampleScenario.node[21].veinsmobility posx ETV
vector 43 RSUExampleScenario.node[21].veinsmobility posy ETV
vector 44 RSUExampleScenario.node[22].veinsmobility posx ETV
vector 45 RSUExampleScenario.node[22].veinsmobility posy ETV
vector 46 RSUExampleScenario.node[23].veinsmobility posx ETV
vector 47 RSUExampleScenario.node[23].veinsmobility posy ETV
vector 48 RSUExampleScenario.node[24].veinsmobility posx ETV
vector 49 RSUExampleScenario.node[24].veinsmobility posy ETV
vector 50 RSUExampleScenario.node[25].veinsmobility posx ETV
vector 51 RSUExampleScenario.node[25].veinsmobility posy ETV
vector 52 RSUExampleScenario.node[26].veinsmobility posx ETV
vector 53 RSUExampleScenario.node[26].veinsmobility posy ETV
vector 54 RSUExampleScenario.node[27].veinsmobility posx ETV
vector 55 RSUExampleScenario.node[27].veinsmobility posy ETV
vector 56 RSUExampleScenario.node[28].veinsmobility posx ETV
vector 57 RSUExampleScenario.node[28].veinsmobility posy ETV
vector 58 RSUExampleScenario.node[29].veinsmobility posx ETV
vector 59 RSUExampleScenario.node[29].veinsmobility posy ETV
vector 60 RSUExampleScenario.node[30].veinsmobility posx ETV
vector 61 RSUExampleScenario.node[30].veinsmobility posy ETV
vector 62 RSUExampleScenario.node[31].veinsmobility posx ETV
vector 63 RSUExampleScenario.node[31].veinsmobility posy ETV
vector 64 RSUExampleScenario.node[32].veinsmobility posx ETV
vector 65 RSUExampleScenario.node[32].veinsmobility posy ETV
vector 66 RSUExampleScenario.node[33].veinsmobility posx ETV
vector 67 RSUExampleScenario.node[33].veinsmobility posy ETV
vector 68 RSUExampleScenario.node[34].veinsmobility posx ETV
vector 69 RSUExampleScenario.node[34].veinsmobility posy ETV
vector 70 RSUExampleScenario.node[35].veinsmobility posx ETV
vector 71 RSUExampleScenario.node[35].veinsmobility posy ETV
vector 72 RSUExampleScenario.node[36].veinsmobility posx ETV
vector 73 RSUExampleScenario.node[36].veinsmobility posy ETV
vector 74 RSUExampleScenario.node[37].veinsmobility posx ETV
vector 75 RSUExampleScenario.node[37].veinsmobility posy ETV
vector 76 RSUExampleScenario.node[38].veinsmobility posx ETV
vector 77 RSUExampleScenario.node[38].veinsmobility posy ETV
vector 78 RSUExampleScenario.node[39].veinsmobility posx ETV
vector 79 RSUExampleScenario.node[39].veinsmobility posy ETV
vector 80 RSUExampleScenario.node[40].veinsmobility posx ETV
vector 81 RSUExampleScenario.node[40].veinsmobility posy ETV
vector 82 RSUExampleScenario.node[41].veinsmobility posx ETV
vector 83 RSUExampleScenario.node[41].veinsmobility posy ETV
vector 84 RSUExampleScenario.node[42].veinsmobility posx ETV
vector 85 RSUExampleScenario.node[42].veinsmobility posy ETV
vector 86 RSUExampleScenario.node[43].veinsmobility posx ETV
vector 87 RSUExampleScenario.node[43].veinsmobility posy ETV
vector 88 RSUExampleScenario.node[0].veinsmobility speed ETV
vector 89 RSUExampleScenario.node[1].veinsmobility speed ETV
vector 90 RSUExampleScenario.node[2].veinsmobility speed ETV
vector 91 RSUExampleScenario.node[3].veinsmobility speed ETV
vector 92 RSUExampleScenario.node[4].veinsmobility speed ETV
vector 93 RSUExampleScenario.node[5].veinsmobility speed ETV
vector 94 RSUExampleScenario.node[6].veinsmobility speed ETV
vector 95 RSUExampleScenario.node[7].veinsmobility speed ETV
vector 96 RSUExampleScenario.node[8].veinsmobility speed ETV
vector 97 RSUExampleScenario.node[44].veinsmobility posx ETV
vector 98 RSUExampleScenario.node[44].veinsmobility posy ETV
vector 99 RSUExampleScenario.node[45].veinsmobility posx ETV
vector 100 RSUExampleScenario.node[45].veinsmobility posy ETV
vector 101 RSUExampleScenario.node[46].veinsmobility posx ETV
vector 102 RSUExampleScenario.node[46].veinsmobility posy ETV
vector 103 RSUExampleScenario.node[47].veinsmobility posx ETV
vector 104 RSUExampleScenario.node[47].veinsmobility posy ETV
vector 105 RSUExampleScenario.node[48].veinsmobility posx ETV
vector 106 RSUExampleScenario.node[48].veinsmobility posy ETV
vector 107 RSUExampleScenario.node[49].veinsmobility posx ETV
vector 108 RSUExampleScenario.node[49].veinsmobility posy ETV
vector 109 RSUExampleScenario.node[50].veinsmobility posx ETV
vector 110 RSUExampleScenario.node[50].veinsmobility posy ETV
vector 111 RSUExampleScenario.node[51].veinsmobility posx ETV
vector 112 RSUExampleScenario.node[51].veinsmobility posy ETV
vector 113 RSUExampleScenario.node[52].veinsmobility posx ETV
vector 114 RSUExampleScenario.node[52].veinsmobility posy ETV
vector 115 RSUExampleScenario.node[53].veinsmobility posx ETV
vector 116 RSUExampleScenario.node[53].veinsmobility posy ETV
vector 117 RSUExampleScenario.node[54].veinsmobility posx ETV
vector 118 RSUExampleScenario.node[54].veinsmobility posy ETV
vector 119 RSUExampleScenario.node[55].veinsmobility posx ETV
vector 120 RSUExampleScenario.node[55].veinsmobility posy ETV
vector 121 RSUExampleScenario.node[56].veinsmobility posx ETV
vector 122 RSUExampleScenario.node[56].veinsmobility posy ETV
vector 123 RSUExampleScenario.node[57].veinsmobility posx ETV
vector 124 RSUExampleScenario.node[57].veinsmobility posy ETV
vector 125 RSUExampleScenario.node[58].veinsmobility posx ETV
vector 126 RSUExampleScenario.node[58].veinsmobility posy ETV
vector 127 RSUExampleScenario.node[59].veinsmobility posx ETV
vector 128 RSUExampleScenario.node[59].veinsmobility posy ETV
vector 129 RSUExampleScenario.node[60].veinsmobility posx ETV
vector 130 RSUExampleScenario.node[60].veinsmobility posy ETV
vector 131 RSUExampleScenario.node[61].veinsmobility posx ETV
vector 132 RSUExampleScenario.node[61].veinsmobility posy ETV
vector 133 RSUExampleScenario.node[62].veinsmobility posx ETV
vector 134 RSUExampleScenario.node[62].veinsmobility posy ETV
vector 135 RSUExampleScenario.node[0].veinsmobility acceleration ETV
vector 136 RSUExampleScenario.node[0].veinsmobility co2emission ETV
vector 137 RSUExampleScenario.node[1].veinsmobility acceleration ETV
vector 138 RSUExampleScenario.node[1].veinsmobility co2emission ETV
vector 139 RSUExampleScenario.node[2].veinsmobility acceleration ETV
vector 140 RSUExampleScenario.node[2].veinsmobility co2emission ETV
vector 141 RSUExampleScenario.node[3].veinsmobility acceleration ETV
vector 142 RSUExampleScenario.node[3].veinsmobility co2emission ETV
vector 143 RSUExampleScenario.node[4].veinsmobility acceleration ETV
vector 144 RSUExampleScenario.node[4].veinsmobility co2emission ETV
vector 145 RSUExampleScenario.node[5].veinsmobility acceleration ETV
vector 146 RSUExampleScenario.node[5].veinsmobility co2emission ETV
vector 147 RSUExampleScenario.node[6].veinsmobility acceleration ETV
vector 148 RSUExampleScenario.node[6].veinsmobility co2emission ETV
vector 149 RSUExampleScenario.node[7].veinsmobility acceleration ETV
vector 150 RSUExampleScenario.node[7].veinsmobility co2emission ETV
vector 151 RSUExampleScenario.node[8].veinsmobility acceleration ETV
vector 152 RSUExampleScenario.node[8].veinsmobility co2emission ETV
vector 153 RSUExampleScenario.node[9].veinsmobility speed ETV
vector 154 RSUExampleScenario.node[10].veinsmobility speed ETV
vector 155 RSUExampleScenario.node[11].veinsmobility speed ETV
vector 156 RSUExampleScenario.node[12].veinsmobility speed ETV
vector 157 RSUExampleScenario.node[13].veinsmobility speed ETV
vector 158 RSUExampleScenario.node[14].veinsmobility speed ETV
vector 159 RSUExampleScenario.node[15].veinsmobility speed ETV
vector 160 RSUExampleScenario.node[16].veinsmobility speed ETV
vector 161 RSUExampleScenario.node[17].veinsmobility speed ETV
vector 162 RSUExampleScenario.node[18].veinsmobility speed ETV
vector 163 RSUExampleScenario.node[19].veinsmobility speed ETV
vector 164 RSUExampleScenario.node[20].veinsmobility speed ETV
vector 165 RSUExampleScenario.node[21].veinsmobility speed ETV
vector 166 RSUExampleScenario.node[22].veinsmobility speed ETV
vector 167 RSUExampleScenario.node[23].veinsmobility speed ETV
vector 168 RSUExampleScenario.node[24].veinsmobility speed ETV
vector 169 RSUExampleScenario.node[25].veinsmobility speed ETV
vector 170 RSUExampleScenario.node[26].veinsmobility speed ETV
vector 171 RSUExampleScenario.node[27].veinsmobility speed ETV
vector 172 RSUExampleScenario.node[28].veinsmobility speed ETV
vector 173 RSUExampleScenario.node[29].veinsmobility speed ETV
vector 174 RSUExampleScenario.node[30].veinsmobility speed ETV
vector 175 RSUExampleScenario.node[31].veinsmobility speed ETV
vector 176 RSUExampleScenario.node[32].veinsmobility speed ETV
vector 177 RSUExampleScenario.node[33].veinsmobility speed ETV
vector 178 RSUExampleScenario.node[34].veinsmobility speed ETV
vector 179 RSUExampleScenario.node[35].veinsmobility speed ETV
vector 180 RSUExampleScenario.node[36].veinsmobility speed ETV
vector 181 RSUExampleScenario.node[37].veinsmobility speed ETV
vector 182 RSUExampleScenario.node[38].veinsmobility speed ETV
vector 183 RSUExampleScenario.node[39].veinsmobility speed ETV
vector 184 RSUExampleScenario.node[40].veinsmobility speed ETV
vector 185 RSUExampleScenario.node[41].veinsmobility speed ETV
vector 186 RSUExampleScenario.node[42].veinsmobility speed ETV
vector 187 RSUExampleScenario.node[43].veinsmobility speed ETV
vector 188 RSUExampleScenario.node[63].veinsmobility posx ETV
vector 189 RSUExampleScenario.node[63].veinsmobility posy ETV
vector 190 RSUExampleScenario.node[64].veinsmobility posx ETV
vector 191 RSUExampleScenario.node[64].veinsmobility posy ETV
vector 192 RSUExampleScenario.node[65].veinsmobility posx ETV
vector 193 RSUExampleScenario.node[65].veinsmobility posy ETV
vector 194 RSUExampleScenario.node[66].veinsmobility posx ETV
vector 195 RSUExampleScenario.node[66].veinsmobility posy ETV
vector 196 RSUExampleScenario.node[67].veinsmobility posx ETV
vector 197 RSUExampleScenario.node[67].veinsmobility posy ETV
vector 198 RSUExampleScenario.node[68].veinsmobility posx ETV
vector 199 RSUExampleScenario.node[68].veinsmobility posy ETV
vector 200 RSUExampleScenario.node[69].veinsmobility posx ETV
vector 201 RSUExampleScenario.node[69].veinsmobility posy ETV
vector 202 RSUExampleScenario.node[70].veinsmobility posx ETV
vector 203 RSUExampleScenario.node[70].veinsmobility posy ETV
vector 204 RSUExampleScenario.node[71].veinsmobility posx ETV
vector 205 RSUExampleScenario.node[71].veinsmobility posy ETV
vector 206 RSUExampleScenario.node[72].veinsmobility posx ETV
vector 207 RSUExampleScenario.node[72].veinsmobility posy ETV
vector 208 RSUExampleScenario.node[73].veinsmobility posx ETV
vector 209 RSUExampleScenario.node[73].veinsmobility posy ETV
vector 210 RSUExampleScenario.node[74].veinsmobility posx ETV
vector 211 RSUExampleScenario.node[74].veinsmobility posy ETV
vector 212 RSUExampleScenario.node[75].veinsmobility posx ETV
vector 213 RSUExampleScenario.node[75].veinsmobility posy ETV
vector 214 RSUExampleScenario.node[76].veinsmobility posx ETV
vector 215 RSUExampleScenario.node[76].veinsmobility posy ETV
vector 216 RSUExampleScenario.node[77].veinsmobility posx ETV
vector 217 RSUExampleScenario.node[77].veinsmobility posy ETV
vector 218 RSUExampleScenario.node[78].veinsmobility posx ETV
vector 219 RSUExampleScenario.node[78].veinsmobility posy ETV
vector 220 RSUExampleScenario.node[79].veinsmobility posx ETV
vector 221 RSUExampleScenario.node[79].veinsmobility posy ETV
vector 222 RSUExampleScenario.node[80].veinsmobility posx ETV
vector 223 RSUExampleScenario.node[80].veinsmobility posy ETV
vector 224 RSUExampleScenario.node[81].veinsmobility posx ETV
vector 225 RSUExampleScenario.node[81].veinsmobility posy ETV
vector 226 RSUExampleScenario.node[82].veinsmobility posx ETV
vector 227 RSUExampleScenario.node[82].veinsmobility posy ETV
vector 228 RSUExampleScenario.node[83].veinsmobility posx ETV
vector 229 RSUExampleScenario.node[83].veinsmobility posy ETV
vector 230 RSUExampleScenario.node[84].veinsmobility posx ETV
vector 231 RSUExampleScenario.node[84].veinsmobility posy ETV
vector 232 RSUExampleScenario.node[85].veinsmobility posx ETV
vector 233 RSUExampleScenario.node[85].veinsmobility posy ETV
vector 234 RSUExampleScenario.node[9].veinsmobility acceleration ETV
vector 235 RSUExampleScenario.node[9].veinsmobility co2emission ETV
vector 236 RSUExampleScenario.node[10].veinsmobility acceleration ETV
vector 237 RSUExampleScenario.node[10].veinsmobility co2emission ETV
vector 238 RSUExampleScenario.node[11].veinsmobility acceleration ETV
vector 239 RSUExampleScenario.node[11].veinsmobility co2emission ETV
vector 240 RSUExampleScenario.node[12].veinsmobility acceleration ETV
vector 241 RSUExampleScenario.node[12].veinsmobility co2emission ETV
vector 242 RSUExampleScenario.node[13].veinsmobility acceleration ETV
vector 243 RSUExampleScenario.node[13].veinsmobility co2emission ETV
vector 244 RSUExampleScenario.node[14].veinsmobility acceleration ETV
vector 245 RSUExampleScenario.node[14].veinsmobility co2emission ETV
vector 246 RSUExampleScenario.node[15].veinsmobility acceleration ETV
vector 247 RSUExampleScenario.node[15].veinsmobility co2emission ETV
vector 248 RSUExampleScenario.node[16].veinsmobility acceleration ETV
vector 249 RSUExampleScenario.node[16].veinsmobility co2emission ETV
vector 250 RSUExampleScenario.node[17].veinsmobility acceleration ETV
vector 251 RSUExampleScenario.node[17].veinsmobility co2emission ETV
vector 252 RSUExampleScenario.node[18].veinsmobility acceleration ETV
vector 253 RSUExampleScenario.node[18].veinsmobility co2emission ETV
vector 254 RSUExampleScenario.node[19].veinsmobility acceleration ETV
vector 255 RSUExampleScenario.node[19].veinsmobility co2emission ETV
vector 256 RSUExampleScenario.node[20].veinsmobility acceleration ETV
vector 257 RSUExampleScenario.node[20].veinsmobility co2emission ETV
vector 258 RSUExampleScenario.node[21].veinsmobility acceleration ETV
vector 259 RSUExampleScenario.node[21].veinsmobility co2emission ETV
vector 260 RSUExampleScenario.node[22].veinsmobility acceleration ETV
vector 261 RSUExampleScenario.node[22].veinsmobility co2emission ETV
vector 262 RSUExampleScenario.node[23].veinsmobility acceleration ETV
vector 263 RSUExampleScenario.node[23].veinsmobility co2emission ETV
vector 264 RSUExampleScenario.node[24].veinsmobility acceleration ETV
vector 265 RSUExampleScenario.node[24].veinsmobility co2emission ETV
vector 266 RSUExampleScenario.node[25].veinsmobility acceleration ETV
vector 267 RSUExampleScenario.node[25].veinsmobility co2emission ETV
vector 268 RSUExampleScenario.node[26].veinsmobility acceleration ETV
vector 269 RSUExampleScenario.node[26].veinsmobility co2emission ETV
vector 270 RSUExampleScenario.node[27].veinsmobility acceleration ETV
vector 271 RSUExampleScenario.node[27].veinsmobility co2emission ETV
vector 272 RSUExampleScenario.node[28].veinsmobility acceleration ETV
vector 273 RSUExampleScenario.node[28].veinsmobility co2emission ETV
vector 274 RSUExampleScenario.node[29].veinsmobility acceleration ETV
vector 275 RSUExampleScenario.node[29].veinsmobility co2emission ETV
vector 276 RSUExampleScenario.node[30].veinsmobility acceleration ETV
vector 277 RSUExampleScenario.node[30].veinsmobility co2emission ETV
vector 278 RSUExampleScenario.node[31].veinsmobility acceleration ETV
vector 279 RSUExampleScenario.node[31].veinsmobility co2emission ETV
vector 280 RSUExampleScenario.node[32].veinsmobility acceleration ETV
vector 281 RSUExampleScenario.node[32].veinsmobility co2emission ETV
vector 282 RSUExampleScenario.node[33].veinsmobility acceleration ETV
vector 283 RSUExampleScenario.node[33].veinsmobility co2emission ETV
vector 284 RSUExampleScenario.node[34].veinsmobility acceleration ETV
vector 285 RSUExampleScenario.node[34].veinsmobility co2emission ETV
vector 286 RSUExampleScenario.node[35].veinsmobility acceleration ETV
vector 287 RSUExampleScenario.node[35].veinsmobility co2emission ETV
vector 288 RSUExampleScenario.node[36].veinsmobility acceleration ETV
vector 289 RSUExampleScenario.node[36].veinsmobility co2emission ETV
vector 290 RSUExampleScenario.node[37].veinsmobility acceleration ETV
vector 291 RSUExampleScenario.node[37].veinsmobility co2emission ETV
vector 292 RSUExampleScenario.node[38].veinsmobility acceleration ETV
vector 293 RSUExampleScenario.node[38].veinsmobility co2emission ETV
vector 294 RSUExampleScenario.node[39].veinsmobility acceleration ETV
vector 295 RSUExampleScenario.node[39].veinsmobility co2emission ETV
vector 296 RSUExampleScenario.node[40].veinsmobility acceleration ETV
vector 297 RSUExampleScenario.node[40].veinsmobility co2emission ETV
vector 298 RSUExampleScenario.node[41].veinsmobility acceleration ETV
vector 299 RSUExampleScenario.node[41].veinsmobility co2emission ETV
vector 300 RSUExampleScenario.node[42].veinsmobility acceleration ETV
vector 301 RSUExampleScenario.node[42].veinsmobility co2emission ETV
vector 302 RSUExampleScenario.node[43].veinsmobility acceleration ETV
vector 303 RSUExampleScenario.node[43].veinsmobility co2emission ETV
vector 304 RSUExampleScenario.node[44].veinsmobility speed ETV
vector 305 RSUExampleScenario.node[45].veinsmobility speed ETV
vector 306 RSUExampleScenario.node[46].veinsmobility speed ETV
vector 307 RSUExampleScenario.node[47].veinsmobility speed ETV
vector 308 RSUExampleScenario.node[48].veinsmobility speed ETV
vector 309 RSUExampleScenario.node[49].veinsmobility speed ETV
vector 310 RSUExampleScenario.node[50].veinsmobility speed ETV
vector 311 RSUExampleScenario.node[51].veinsmobility speed ETV
vector 312 RSUExampleScenario.node[52].veinsmobility speed ETV
vector 313 RSUExampleScenario.node[53].veinsmobility speed ETV
vector 314 RSUExampleScenario.node[54].veinsmobility speed ETV
vector 315 RSUExampleScenario.node[55].veinsmobility speed ETV
vector 316 RSUExampleScenario.node[56].veinsmobility speed ETV
vector 317 RSUExampleScenario.node[57].veinsmobility speed ETV
vector 318 RSUExampleScenario.node[58].veinsmobility speed ETV
vector 319 RSUExampleScenario.node[59].veinsmobility speed ETV
vector 320 RSUExampleScenario.node[60].veinsmobility speed ETV
vector 321 RSUExampleScenario.node[61].veinsmobility speed ETV
vector 322 RSUExampleScenario.node[62].veinsmobility speed ETV
vector 323 RSUExampleScenario.node[86].veinsmobility posx ETV
vector 324 RSUExampleScenario.node[86].veinsmobility posy ETV
vector 325 RSUExampleScenario.node[87].veinsmobility posx ETV
vector 326 RSUExampleScenario.node[87].veinsmobility posy ETV
vector 327 RSUExampleScenario.node[88].veinsmobility posx ETV
vector 328 RSUExampleScenario.node[88].veinsmobility posy ETV
vector 329 RSUExampleScenario.node[89].veinsmobility posx ETV
vector 330 RSUExampleScenario.node[89].veinsmobility posy ETV
vector 331 RSUExampleScenario.node[90].veinsmobility posx ETV
vector 332 RSUExampleScenario.node[90].veinsmobility posy ETV
vector 333 RSUExampleScenario.node[91].veinsmobility posx ETV
vector 334 RSUExampleScenario.node[91].veinsmobility posy ETV
vector 335 RSUExampleScenario.node[92].veinsmobility posx ETV
vector 336 RSUExampleScenario.node[92].veinsmobility posy ETV
vector 337 RSUExampleScenario.node[93].veinsmobility posx ETV
vector 338 RSUExampleScenario.node[93].veinsmobility posy ETV
vector 339 RSUExampleScenario.node[94].veinsmobility posx ETV
vector 340 RSUExampleScenario.node[94].veinsmobility posy ETV
vector 341 RSUExampleScenario.node[95].veinsmobility posx ETV
vector 342 RSUExampleScenario.node[95].veinsmobility posy ETV
vector 343 RSUExampleScenario.node[96].veinsmobility posx ETV
vector 344 RSUExampleScenario.node[96].veinsmobility posy ETV
vector 345 RSUExampleScenario.node[97].veinsmobility posx ETV
vector 346 RSUExampleScenario.node[97].veinsmobility posy ETV
vector 347 RSUExampleScenario.node[98].veinsmobility posx ETV
vector 348 RSUExampleScenario.node[98].veinsmobility posy ETV
vector 349 RSUExampleScenario.node[99].veinsmobility posx ETV
vector 350 RSUExampleScenario.node[99].veinsmobility posy ETV
vector 351 RSUExampleScenario.node[100].veinsmobility posx ETV
vector 352 RSUExampleScenario.node[100].veinsmobility posy ETV
vector 353 RSUExampleScenario.node[101].veinsmobility posx ETV
vector 354 RSUExampleScenario.node[101].veinsmobility posy ETV
vector 355 RSUExampleScenario.node[102].veinsmobility posx ETV
vector 356 RSUExampleScenario.node[102].veinsmobility posy ETV
vector 357 RSUExampleScenario.node[103].veinsmobility posx ETV
vector 358 RSUExampleScenario.node[103].veinsmobility posy ETV
vector 359 RSUExampleScenario.node[104].veinsmobility posx ETV
vector 360 RSUExampleScenario.node[104].veinsmobility posy ETV
vector 361 RSUExampleScenario.node[105].veinsmobility posx ETV
vector 362 RSUExampleScenario.node[105].veinsmobility posy ETV
vector 363 RSUExampleScenario.node[106].veinsmobility posx ETV
vector 364 RSUExampleScenario.node[106].veinsmobility posy ETV
vector 365 RSUExampleScenario.node[107].veinsmobility posx ETV
vector 366 RSUExampleScenario.node[107].veinsmobility posy ETV
vector 367 RSUExampleScenario.node[108].veinsmobility posx ETV
vector 368 RSUExampleScenario.node[108].veinsmobility posy ETV
vector 369 RSUExampleScenario.node[109].veinsmobility posx ETV
vector 370 RSUExampleScenario.node[109].veinsmobility posy ETV
vector 371 RSUExampleScenario.node[110].veinsmobility posx ETV
vector 372 RSUExampleScenario.node[110].veinsmobility posy ETV
vector 373 RSUExampleScenario.node[111].veinsmobility posx ETV
vector 374 RSUExampleScenario.node[111].veinsmobility posy ETV
vector 375 RSUExampleScenario.node[112].veinsmobility posx ETV
vector 376 RSUExampleScenario.node[112].veinsmobility posy ETV
vector 377 RSUExampleScenario.node[113].veinsmobility posx ETV
vector 378 RSUExampleScenario.node[113].veinsmobility posy ETV
vector 379 RSUExampleScenario.node[44].veinsmobility acceleration ETV
vector 380 RSUExampleScenario.node[44].veinsmobility co2emission ETV
vector 381 RSUExampleScenario.node[45].veinsmobility acceleration ETV
vector 382 RSUExampleScenario.node[45].veinsmobility co2emission ETV
vector 383 RSUExampleScenario.node[46].veinsmobility acceleration ETV
vector 384 RSUExampleScenario.node[46].veinsmobility co2emission ETV
vector 385 RSUExampleScenario.node[47].veinsmobility acceleration ETV
vector 386 RSUExampleScenario.node[47].veinsmobility co2emission ETV
vector 387 RSUExampleScenario.node[48].veinsmobility acceleration ETV
vector 388 RSUExampleScenario.node[48].veinsmobility co2emission ETV
vector 389 RSUExampleScenario.node[49].veinsmobility acceleration ETV
vector 390 RSUExampleScenario.node[49].veinsmobility co2emission ETV
vector 391 RSUExampleScenario.node[50].veinsmobility acceleration ETV
vector 392 RSUExampleScenario.node[50].veinsmobility co2emission ETV
vector 393 RSUExampleScenario.node[51].veinsmobility acceleration ETV
vector 394 RSUExampleScenario.node[51].veinsmobility co2emission ETV
vector 395 RSUExampleScenario.node[52].veinsmobility acceleration ETV
vector 396 RSUExampleScenario.node[52].veinsmobility co2emission ETV
vector 397 RSUExampleScenario.node[53].veinsmobility acceleration ETV
vector 398 RSUExampleScenario.node[53].veinsmobility co2emission ETV
vector 399 RSUExampleScenario.node[54].veinsmobility acceleration ETV
vector 400 RSUExampleScenario.node[54].veinsmobility co2emission ETV
vector 401 RSUExampleScenario.node[55].veinsmobility acceleration ETV
vector 402 RSUExampleScenario.node[55].veinsmobility co2emission ETV
vector 403 RSUExampleScenario.node[56].veinsmobility acceleration ETV
vector 404 RSUExampleScenario.node[56].veinsmobility co2emission ETV
vector 405 RSUExampleScenario.node[57].veinsmobility acceleration ETV
vector 406 RSUExampleScenario.node[57].veinsmobility co2emission ETV
vector 407 RSUExampleScenario.node[58].veinsmobility acceleration ETV
vector 408 RSUExampleScenario.node[58].veinsmobility co2emission ETV
vector 409 RSUExampleScenario.node[59].veinsmobility acceleration ETV
vector 410 RSUExampleScenario.node[59].veinsmobility co2emission ETV
vector 411 RSUExampleScenario.node[60].veinsmobility acceleration ETV
vector 412 RSUExampleScenario.node[60].veinsmobility co2emission ETV
vector 413 RSUExampleScenario.node[61].veinsmobility acceleration ETV
vector 414 RSUExampleScenario.node[61].veinsmobility co2emission ETV
vector 415 RSUExampleScenario.node[62].veinsmobility acceleration ETV
vector 416 RSUExampleScenario.node[62].veinsmobility co2emission ETV
vector 417 RSUExampleScenario.node[63].veinsmobility speed ETV
vector 418 RSUExampleScenario.node[64].veinsmobility speed ETV
vector 419 RSUExampleScenario.node[65].veinsmobility speed ETV
vector 420 RSUExampleScenario.node[66].veinsmobility speed ETV
vector 421 RSUExampleScenario.node[67].veinsmobility speed ETV
vector 422 RSUExampleScenario.node[68].veinsmobility speed ETV
vector 423 RSUExampleScenario.node[69].veinsmobility speed ETV
vector 424 RSUExampleScenario.node[70].veinsmobility speed ETV
vector 425 RSUExampleScenario.node[71].veinsmobility speed ETV
vector 426 RSUExampleScenario.node[72].veinsmobility speed ETV
vector 427 RSUExampleScenario.node[73].veinsmobility speed ETV
vector 428 RSUExampleScenario.node[74].veinsmobility speed ETV
vector 429 RSUExampleScenario.node[75].veinsmobility speed ETV
vector 430 RSUExampleScenario.node[76].veinsmobility speed ETV
vector 431 RSUExampleScenario.node[77].veinsmobility speed ETV
vector 432 RSUExampleScenario.node[78].veinsmobility speed ETV
vector 433 RSUExampleScenario.node[79].veinsmobility speed ETV
vector 434 RSUExampleScenario.node[80].veinsmobility speed ETV
vector 435 RSUExampleScenario.node[81].veinsmobility speed ETV
vector 436 RSUExampleScenario.node[82].veinsmobility speed ETV
vector 437 RSUExampleScenario.node[83].veinsmobility speed ETV
vector 438 RSUExampleScenario.node[84].veinsmobility speed ETV
vector 439 RSUExampleScenario.node[85].veinsmobility speed ETV
376	30479 20 39374 39374 5 5 1 6536.42 6536.42 6536.42 42724786.4164
375	30499 20 39374 39374 5 5 1 2887.54 2887.54 2887.54 8337887.2516
vector 440 RSUExampleScenario.node[114].veinsmobility posx ETV
vector 441 RSUExampleScenario.node[114].veinsmobility posy ETV
vector 442 RSUExampleScenario.node[115].veinsmobility posx ETV
vector 443 RSUExampleScenario.node[115].veinsmobility posy ETV
vector 444 RSUExampleScenario.node[116].veinsmobility posx ETV
vector 445 RSUExampleScenario.node[116].veinsmobility posy ETV
vector 446 RSUExampleScenario.node[117].veinsmobility posx ETV
vector 447 RSUExampleScenario.node[117].veinsmobility posy ETV
vector 448 RSUExampleScenario.node[118].veinsmobility posx ETV
vector 449 RSUExampleScenario.node[118].veinsmobility posy ETV
vector 450 RSUExampleScenario.node[119].veinsmobility posx ETV
vector 451 RSUExampleScenario.node[119].veinsmobility posy ETV
vector 452 RSUExampleScenario.node[120].veinsmobility posx ETV
vector 453 RSUExampleScenario.node[120].veinsmobility posy ETV
vector 454 RSUExampleScenario.node[121].veinsmobility posx ETV
vector 455 RSUExampleScenario.node[121].veinsmobility posy ETV
vector 456 RSUExampleScenario.node[122].veinsmobility posx ETV
vector 457 RSUExampleScenario.node[122].veinsmobility posy ETV
vector 458 RSUExampleScenario.node[123].veinsmobility posx ETV
vector 459 RSUExampleScenario.node[123].veinsmobility posy ETV
vector 460 RSUExampleScenario.node[124].veinsmobility posx ETV
vector 461 RSUExampleScenario.node[124].veinsmobility posy ETV
vector 462 RSUExampleScenario.node[125].veinsmobility posx ETV
vector 463 RSUExampleScenario.node[125].veinsmobility posy ETV
vector 464 RSUExampleScenario.node[126].veinsmobility posx ETV
vector 465 RSUExampleScenario.node[126].veinsmobility posy ETV
vector 466 RSUExampleScenario.node[127].veinsmobility posx ETV
vector 467 RSUExampleScenario.node[127].veinsmobility posy ETV
vector 468 RSUExampleScenario.node[128].veinsmobility posx ETV
vector 469 RSUExampleScenario.node[128].veinsmobility posy ETV
vector 470 RSUExampleScenario.node[129].veinsmobility posx ETV
vector 471 RSUExampleScenario.node[129].veinsmobility posy ETV
vector 472 RSUExampleScenario.node[130].veinsmobility posx ETV
vector 473 RSUExampleScenario.node[130].veinsmobility posy ETV
vector 474 RSUExampleScenario.node[131].veinsmobility posx ETV
vector 475 RSUExampleScenario.node[131].veinsmobility posy ETV
vector 476 RSUExampleScenario.node[132].veinsmobility posx ETV
vector 477 RSUExampleScenario.node[132].veinsmobility posy ETV
vector 478 RSUExampleScenario.node[133].veinsmobility posx ETV
vector 479 RSUExampleScenario.node[133].veinsmobility posy ETV
vector 480 RSUExampleScenario.node[134].veinsmobility posx ETV
vector 481 RSUExampleScenario.node[134].veinsmobility posy ETV
vector 482 RSUExampleScenario.node[135].veinsmobility posx ETV
vector 483 RSUExampleScenario.node[135].veinsmobility posy ETV
vector 484 RSUExampleScenario.node[63].veinsmobility acceleration ETV
vector 485 RSUExampleScenario.node[63].veinsmobility co2emission ETV
vector 486 RSUExampleScenario.node[64].veinsmobility acceleration ETV
vector 487 RSUExampleScenario.node[64].veinsmobility co2emission ETV
vector 488 RSUExampleScenario.node[65].veinsmobility acceleration ETV
vector 489 RSUExampleScenario.node[65].veinsmobility co2emission ETV
vector 490 RSUExampleScenario.node[66].veinsmobility acceleration ETV
vector 491 RSUExampleScenario.node[66].veinsmobility co2emission ETV
vector 492 RSUExampleScenario.node[67].veinsmobility acceleration ETV
vector 493 RSUExampleScenario.node[67].veinsmobility co2emission ETV
vector 494 RSUExampleScenario.node[68].veinsmobility acceleration ETV
vector 495 RSUExampleScenario.node[68].veinsmobility co2emission ETV
vector 496 RSUExampleScenario.node[69].veinsmobility acceleration ETV
vector 497 RSUExampleScenario.node[69].veinsmobility co2emission ETV
vector 498 RSUExampleScenario.node[70].veinsmobility acceleration ETV
vector 499 RSUExampleScenario.node[70].veinsmobility co2emission ETV
vector 500 RSUExampleScenario.node[71].veinsmobility acceleration ETV
vector 501 RSUExampleScenario.node[71].veinsmobility co2emission ETV
vector 502 RSUExampleScenario.node[72].veinsmobility acceleration ETV
vector 503 RSUExampleScenario.node[72].veinsmobility co2emission ETV
vector 504 RSUExampleScenario.node[73].veinsmobility acceleration ETV
vector 505 RSUExampleScenario.node[73].veinsmobility co2emission ETV
vector 506 RSUExampleScenario.node[74].veinsmobility acceleration ETV
vector 507 RSUExampleScenario.node[74].veinsmobility co2emission ETV
vector 508 RSUExampleScenario.node[75].veinsmobility acceleration ETV
vector 509 RSUExampleScenario.node[75].veinsmobility co2emission ETV
vector 510 RSUExampleScenario.node[76].veinsmobility acceleration ETV
vector 511 RSUExampleScenario.node[76].veinsmobility co2emission ETV
vector 512 RSUExampleScenario.node[77].veinsmobility acceleration ETV
vector 513 RSUExampleScenario.node[77].veinsmobility co2emission ETV
vector 514 RSUExampleScenario.node[78].veinsmobility acceleration ETV
vector 515 RSUExampleScenario.node[78].veinsmobility co2emission ETV
vector 516 RSUExampleScenario.node[79].veinsmobility acceleration ETV
vector 517 RSUExampleScenario.node[79].veinsmobility co2emission ETV
vector 518 RSUExampleScenario.node[80].veinsmobility acceleration ETV
vector 519 RSUExampleScenario.node[80].veinsmobility co2emission ETV
vector 520 RSUExampleScenario.node[81].veinsmobility acceleration ETV
vector 521 RSUExampleScenario.node[81].veinsmobility co2emission ETV
vector 522 RSUExampleScenario.node[82].veinsmobility acceleration ETV
vector 523 RSUExampleScenario.node[82].veinsmobility co2emission ETV
vector 524 RSUExampleScenario.node[83].veinsmobility acceleration ETV
vector 525 RSUExampleScenario.node[83].veinsmobility co2emission ETV
vector 526 RSUExampleScenario.node[84].veinsmobility acceleration ETV
vector 527 RSUExampleScenario.node[84].veinsmobility co2emission ETV
vector 528 RSUExampleScenario.node[85].veinsmobility acceleration ETV
vector 529 RSUExampleScenario.node[85].veinsmobility co2emission ETV
vector 530 RSUExampleScenario.node[86].veinsmobility speed ETV
vector 531 RSUExampleScenario.node[87].veinsmobility speed ETV
vector 532 RSUExampleScenario.node[88].veinsmobility speed ETV
vector 533 RSUExampleScenario.node[89].veinsmobility speed ETV
vector 534 RSUExampleScenario.node[90].veinsmobility speed ETV
vector 535 RSUExampleScenario.node[91].veinsmobility speed ETV
vector 536 RSUExampleScenario.node[92].veinsmobility speed ETV
vector 537 RSUExampleScenario.node[93].veinsmobility speed ETV
vector 538 RSUExampleScenario.node[94].veinsmobility speed ETV
vector 539 RSUExampleScenario.node[95].veinsmobility speed ETV
vector 540 RSUExampleScenario.node[96].veinsmobility speed ETV
vector 541 RSUExampleScenario.node[97].veinsmobility speed ETV
vector 542 RSUExampleScenario.node[98].veinsmobility speed ETV
vector 543 RSUExampleScenario.node[99].veinsmobility speed ETV
vector 544 RSUExampleScenario.node[100].veinsmobility speed ETV
vector 545 RSUExampleScenario.node[101].veinsmobility speed ETV
vector 546 RSUExampleScenario.node[102].veinsmobility speed ETV
vector 547 RSUExampleScenario.node[103].veinsmobility speed ETV
vector 548 RSUExampleScenario.node[104].veinsmobility speed ETV
vector 549 RSUExampleScenario.node[105].veinsmobility speed ETV
vector 550 RSUExampleScenario.node[106].veinsmobility speed ETV
vector 551 RSUExampleScenario.node[107].veinsmobility speed ETV
vector 552 RSUExampleScenario.node[108].veinsmobility speed ETV
vector 553 RSUExampleScenario.node[109].veinsmobility speed ETV
vector 554 RSUExampleScenario.node[110].veinsmobility speed ETV
vector 555 RSUExampleScenario.node[111].veinsmobility speed ETV
vector 556 RSUExampleScenario.node[113].veinsmobility speed ETV
vector 557 RSUExampleScenario.node[136].veinsmobility posx ETV
vector 558 RSUExampleScenario.node[136].veinsmobility posy ETV
vector 559 RSUExampleScenario.node[137].veinsmobility posx ETV
vector 560 RSUExampleScenario.node[137].veinsmobility posy ETV
vector 561 RSUExampleScenario.node[138].veinsmobility posx ETV
vector 562 RSUExampleScenario.node[138].veinsmobility posy ETV
vector 563 RSUExampleScenario.node[139].veinsmobility posx ETV
vector 564 RSUExampleScenario.node[139].veinsmobility posy ETV
vector 565 RSUExampleScenario.node[140].veinsmobility posx ETV
vector 566 RSUExampleScenario.node[140].veinsmobility posy ETV
vector 567 RSUExampleScenario.node[141].veinsmobility posx ETV
vector 568 RSUExampleScenario.node[141].veinsmobility posy ETV
vector 569 RSUExampleScenario.node[142].veinsmobility posx ETV
vector 570 RSUExampleScenario.node[142].veinsmobility posy ETV
vector 571 RSUExampleScenario.node[143].veinsmobility posx ETV
vector 572 RSUExampleScenario.node[143].veinsmobility posy ETV
vector 573 RSUExampleScenario.node[144].veinsmobility posx ETV
vector 574 RSUExampleScenario.node[144].veinsmobility posy ETV
vector 575 RSUExampleScenario.node[145].veinsmobility posx ETV
vector 576 RSUExampleScenario.node[145].veinsmobility posy ETV
vector 577 RSUExampleScenario.node[146].veinsmobility posx ETV
vector 578 RSUExampleScenario.node[146].veinsmobility posy ETV
vector 579 RSUExampleScenario.node[147].veinsmobility posx ETV
vector 580 RSUExampleScenario.node[147].veinsmobility posy ETV
vector 581 RSUExampleScenario.node[148].veinsmobility posx ETV
vector 582 RSUExampleScenario.node[148].veinsmobility posy ETV
vector 583 RSUExampleScenario.node[149].veinsmobility posx ETV
vector 584 RSUExampleScenario.node[149].veinsmobility posy ETV
vector 585 RSUExampleScenario.node[150].veinsmobility posx ETV
vector 586 RSUExampleScenario.node[150].veinsmobility posy ETV
vector 587 RSUExampleScenario.node[151].veinsmobility posx ETV
vector 588 RSUExampleScenario.node[151].veinsmobility posy ETV
vector 589 RSUExampleScenario.node[152].veinsmobility posx ETV
vector 590 RSUExampleScenario.node[152].veinsmobility posy ETV
vector 591 RSUExampleScenario.node[153].veinsmobility posx ETV
vector 592 RSUExampleScenario.node[153].veinsmobility posy ETV
vector 593 RSUExampleScenario.node[154].veinsmobility posx ETV
vector 594 RSUExampleScenario.node[154].veinsmobility posy ETV
vector 595 RSUExampleScenario.node[155].veinsmobility posx ETV
vector 596 RSUExampleScenario.node[155].veinsmobility posy ETV
vector 597 RSUExampleScenario.node[156].veinsmobility posx ETV
vector 598 RSUExampleScenario.node[156].veinsmobility posy ETV
vector 599 RSUExampleScenario.node[86].veinsmobility acceleration ETV
vector 600 RSUExampleScenario.node[86].veinsmobility co2emission ETV
vector 601 RSUExampleScenario.node[87].veinsmobility acceleration ETV
vector 602 RSUExampleScenario.node[87].veinsmobility co2emission ETV
vector 603 RSUExampleScenario.node[88].veinsmobility acceleration ETV
vector 604 RSUExampleScenario.node[88].veinsmobility co2emission ETV
vector 605 RSUExampleScenario.node[89].veinsmobility acceleration ETV
vector 606 RSUExampleScenario.node[89].veinsmobility co2emission ETV
vector 607 RSUExampleScenario.node[90].veinsmobility acceleration ETV
vector 608 RSUExampleScenario.node[90].veinsmobility co2emission ETV
vector 609 RSUExampleScenario.node[91].veinsmobility acceleration ETV
vector 610 RSUExampleScenario.node[91].veinsmobility co2emission ETV
vector 611 RSUExampleScenario.node[92].veinsmobility acceleration ETV
vector 612 RSUExampleScenario.node[92].veinsmobility co2emission ETV
vector 613 RSUExampleScenario.node[93].veinsmobility acceleration ETV
vector 614 RSUExampleScenario.node[93].veinsmobility co2emission ETV
vector 615 RSUExampleScenario.node[94].veinsmobility acceleration ETV
vector 616 RSUExampleScenario.node[94].veinsmobility co2emission ETV
vector 617 RSUExampleScenario.node[95].veinsmobility acceleration ETV
vector 618 RSUExampleScenario.node[95].veinsmobility co2emission ETV
vector 619 RSUExampleScenario.node[96].veinsmobility acceleration ETV
vector 620 RSUExampleScenario.node[96].veinsmobility co2emission ETV
vector 621 RSUExampleScenario.node[97].veinsmobility acceleration ETV
vector 622 RSUExampleScenario.node[97].veinsmobility co2emission ETV
vector 623 RSUExampleScenario.node[98].veinsmobility acceleration ETV
vector 624 RSUExampleScenario.node[98].veinsmobility co2emission ETV
vector 625 RSUExampleScenario.node[99].veinsmobility acceleration ETV
vector 626 RSUExampleScenario.node[99].veinsmobility co2emission ETV
vector 627 RSUExampleScenario.node[100].veinsmobility acceleration ETV
vector 628 RSUExampleScenario.node[100].veinsmobility co2emission ETV
vector 629 RSUExampleScenario.node[101].veinsmobility acceleration ETV
vector 630 RSUExampleScenario.node[101].veinsmobility co2emission ETV
vector 631 RSUExampleScenario.node[102].veinsmobility acceleration ETV
vector 632 RSUExampleScenario.node[102].veinsmobility co2emission ETV
vector 633 RSUExampleScenario.node[103].veinsmobility acceleration ETV
vector 634 RSUExampleScenario.node[103].veinsmobility co2emission ETV
vector 635 RSUExampleScenario.node[104].veinsmobility acceleration ETV
vector 636 RSUExampleScenario.node[104].veinsmobility co2emission ETV
vector 637 RSUExampleScenario.node[105].veinsmobility acceleration ETV
vector 638 RSUExampleScenario.node[105].veinsmobility co2emission ETV
vector 639 RSUExampleScenario.node[106].veinsmobility acceleration ETV
vector 640 RSUExampleScenario.node[106].veinsmobility co2emission ETV
vector 641 RSUExampleScenario.node[107].veinsmobility acceleration ETV
vector 642 RSUExampleScenario.node[107].veinsmobility co2emission ETV
vector 643 RSUExampleScenario.node[108].veinsmobility acceleration ETV
vector 644 RSUExampleScenario.node[108].veinsmobility co2emission ETV
vector 645 RSUExampleScenario.node[109].veinsmobility acceleration ETV
vector 646 RSUExampleScenario.node[109].veinsmobility co2emission ETV
vector 647 RSUExampleScenario.node[110].veinsmobility acceleration ETV
vector 648 RSUExampleScenario.node[110].veinsmobility co2emission ETV
vector 649 RSUExampleScenario.node[111].veinsmobility acceleration ETV
vector 650 RSUExampleScenario.node[111].veinsmobility co2emission ETV
vector 651 RSUExampleScenario.node[113].veinsmobility acceleration ETV
vector 652 RSUExampleScenario.node[113].veinsmobility co2emission ETV
vector 653 RSUExampleScenario.node[114].veinsmobility speed ETV
vector 654 RSUExampleScenario.node[115].veinsmobility speed ETV
vector 655 RSUExampleScenario.node[116].veinsmobility speed ETV
vector 656 RSUExampleScenario.node[117].veinsmobility speed ETV
vector 657 RSUExampleScenario.node[118].veinsmobility speed ETV
vector 658 RSUExampleScenario.node[119].veinsmobility speed ETV
vector 659 RSUExampleScenario.node[120].veinsmobility speed ETV
vector 660 RSUExampleScenario.node[121].veinsmobility speed ETV
vector 661 RSUExampleScenario.node[122].veinsmobility speed ETV
vector 662 RSUExampleScenario.node[123].veinsmobility speed ETV
vector 663 RSUExampleScenario.node[124].veinsmobility speed ETV
vector 664 RSUExampleScenario.node[125].veinsmobility speed ETV
vector 665 RSUExampleScenario.node[126].veinsmobility speed ETV
vector 666 RSUExampleScenario.node[127].veinsmobility speed ETV
vector 667 RSUExampleScenario.node[128].veinsmobility speed ETV
vector 668 RSUExampleScenario.node[129].veinsmobility speed ETV
vector 669 RSUExampleScenario.node[130].veinsmobility speed ETV
vector 670 RSUExampleScenario.node[131].veinsmobility speed ETV
vector 671 RSUExampleScenario.node[132].veinsmobility speed ETV
vector 672 RSUExampleScenario.node[133].veinsmobility speed ETV
vector 673 RSUExampleScenario.node[134].veinsmobility speed ETV
vector 674 RSUExampleScenario.node[135].veinsmobility speed ETV
vector 675 RSUExampleScenario.node[157].veinsmobility posx ETV
vector 676 RSUExampleScenario.node[157].veinsmobility posy ETV
vector 677 RSUExampleScenario.node[158].veinsmobility posx ETV
vector 678 RSUExampleScenario.node[158].veinsmobility posy ETV
vector 679 RSUExampleScenario.node[159].veinsmobility posx ETV
vector 680 RSUExampleScenario.node[159].veinsmobility posy ETV
vector 681 RSUExampleScenario.node[160].veinsmobility posx ETV
vector 682 RSUExampleScenario.node[160].veinsmobility posy ETV
vector 683 RSUExampleScenario.node[161].veinsmobility posx ETV
vector 684 RSUExampleScenario.node[161].veinsmobility posy ETV
vector 685 RSUExampleScenario.node[162].veinsmobility posx ETV
vector 686 RSUExampleScenario.node[162].veinsmobility posy ETV
vector 687 RSUExampleScenario.node[163].veinsmobility posx ETV
vector 688 RSUExampleScenario.node[163].veinsmobility posy ETV
vector 689 RSUExampleScenario.node[164].veinsmobility posx ETV
vector 690 RSUExampleScenario.node[164].veinsmobility posy ETV
vector 691 RSUExampleScenario.node[165].veinsmobility posx ETV
vector 692 RSUExampleScenario.node[165].veinsmobility posy ETV
vector 693 RSUExampleScenario.node[166].veinsmobility posx ETV
vector 694 RSUExampleScenario.node[166].veinsmobility posy ETV
vector 695 RSUExampleScenario.node[167].veinsmobility posx ETV
vector 696 RSUExampleScenario.node[167].veinsmobility posy ETV
vector 697 RSUExampleScenario.node[168].veinsmobility posx ETV
vector 698 RSUExampleScenario.node[168].veinsmobility posy ETV
vector 699 RSUExampleScenario.node[169].veinsmobility posx ETV
vector 700 RSUExampleScenario.node[169].veinsmobility posy ETV
vector 701 RSUExampleScenario.node[170].veinsmobility posx ETV
vector 702 RSUExampleScenario.node[170].veinsmobility posy ETV
vector 703 RSUExampleScenario.node[171].veinsmobility posx ETV
vector 704 RSUExampleScenario.node[171].veinsmobility posy ETV
vector 705 RSUExampleScenario.node[172].veinsmobility posx ETV
vector 706 RSUExampleScenario.node[172].veinsmobility posy ETV
vector 707 RSUExampleScenario.node[173].veinsmobility posx ETV
vector 708 RSUExampleScenario.node[173].veinsmobility posy ETV
vector 709 RSUExampleScenario.node[174].veinsmobility posx ETV
vector 710 RSUExampleScenario.node[174].veinsmobility posy ETV
vector 711 RSUExampleScenario.node[175].veinsmobility posx ETV
vector 712 RSUExampleScenario.node[175].veinsmobility posy ETV
vector 713 RSUExampleScenario.node[176].veinsmobility posx ETV
vector 714 RSUExampleScenario.node[176].veinsmobility posy ETV
vector 715 RSUExampleScenario.node[177].veinsmobility posx ETV
vector 716 RSUExampleScenario.node[177].veinsmobility posy ETV
vector 717 RSUExampleScenario.node[178].veinsmobility posx ETV
vector 718 RSUExampleScenario.node[178].veinsmobility posy ETV
vector 719 RSUExampleScenario.node[179].veinsmobility posx ETV
vector 720 RSUExampleScenario.node[179].veinsmobility posy ETV
vector 721 RSUExampleScenario.node[114].veinsmobility acceleration ETV
vector 722 RSUExampleScenario.node[114].veinsmobility co2emission ETV
vector 723 RSUExampleScenario.node[115].veinsmobility acceleration ETV
vector 724 RSUExampleScenario.node[115].veinsmobility co2emission ETV
vector 725 RSUExampleScenario.node[116].veinsmobility acceleration ETV
vector 726 RSUExampleScenario.node[116].veinsmobility co2emission ETV
vector 727 RSUExampleScenario.node[117].veinsmobility acceleration ETV
vector 728 RSUExampleScenario.node[117].veinsmobility co2emission ETV
vector 729 RSUExampleScenario.node[118].veinsmobility acceleration ETV
vector 730 RSUExampleScenario.node[118].veinsmobility co2emission ETV
vector 731 RSUExampleScenario.node[119].veinsmobility acceleration ETV
vector 732 RSUExampleScenario.node[119].veinsmobility co2emission ETV
vector 733 RSUExampleScenario.node[120].veinsmobility acceleration ETV
vector 734 RSUExampleScenario.node[120].veinsmobility co2emission ETV
vector 735 RSUExampleScenario.node[121].veinsmobility acceleration ETV
vector 736 RSUExampleScenario.node[121].veinsmobility co2emission ETV
vector 737 RSUExampleScenario.node[122].veinsmobility acceleration ETV
vector 738 RSUExampleScenario.node[122].veinsmobility co2emission ETV
vector 739 RSUExampleScenario.node[123].veinsmobility acceleration ETV
vector 740 RSUExampleScenario.node[123].veinsmobility co2emission ETV
vector 741 RSUExampleScenario.node[124].veinsmobility acceleration ETV
vector 742 RSUExampleScenario.node[124].veinsmobility co2emission ETV
vector 743 RSUExampleScenario.node[125].veinsmobility acceleration ETV
vector 744 RSUExampleScenario.node[125].veinsmobility co2emission ETV
vector 745 RSUExampleScenario.node[126].veinsmobility acceleration ETV
vector 746 RSUExampleScenario.node[126].veinsmobility co2emission ETV
vector 747 RSUExampleScenario.node[127].veinsmobility acceleration ETV
vector 748 RSUExampleScenario.node[127].veinsmobility co2emission ETV
vector 749 RSUExampleScenario.node[128].veinsmobility acceleration ETV
vector 750 RSUExampleScenario.node[128].veinsmobility co2emission ETV
vector 751 RSUExampleScenario.node[129].veinsmobility acceleration ETV
vector 752 RSUExampleScenario.node[129].veinsmobility co2emission ETV
vector 753 RSUExampleScenario.node[130].veinsmobility acceleration ETV
vector 754 RSUExampleScenario.node[130].veinsmobility co2emission ETV
vector 755 RSUExampleScenario.node[131].veinsmobility acceleration ETV
vector 756 RSUExampleScenario.node[131].veinsmobility co2emission ETV
vector 757 RSUExampleScenario.node[132].veinsmobility acceleration ETV
vector 758 RSUExampleScenario.node[132].veinsmobility co2emission ETV
vector 759 RSUExampleScenario.node[133].veinsmobility acceleration ETV
vector 760 RSUExampleScenario.node[133].veinsmobility co2emission ETV
vector 761 RSUExampleScenario.node[134].veinsmobility acceleration ETV
vector 762 RSUExampleScenario.node[134].veinsmobility co2emission ETV
vector 763 RSUExampleScenario.node[135].veinsmobility acceleration ETV
vector 764 RSUExampleScenario.node[135].veinsmobility co2emission ETV
vector 765 RSUExampleScenario.node[136].veinsmobility speed ETV
vector 766 RSUExampleScenario.node[137].veinsmobility speed ETV
vector 767 RSUExampleScenario.node[138].veinsmobility speed ETV
vector 768 RSUExampleScenario.node[139].veinsmobility speed ETV
vector 769 RSUExampleScenario.node[140].veinsmobility speed ETV
vector 770 RSUExampleScenario.node[141].veinsmobility speed ETV
vector 771 RSUExampleScenario.node[142].veinsmobility speed ETV
vector 772 RSUExampleScenario.node[143].veinsmobility speed ETV
vector 773 RSUExampleScenario.node[144].veinsmobility speed ETV
vector 774 RSUExampleScenario.node[145].veinsmobility speed ETV
vector 775 RSUExampleScenario.node[146].veinsmobility speed ETV
vector 776 RSUExampleScenario.node[147].veinsmobility speed ETV
vector 777 RSUExampleScenario.node[148].veinsmobility speed ETV
vector 778 RSUExampleScenario.node[149].veinsmobility speed ETV
vector 779 RSUExampleScenario.node[150].veinsmobility speed ETV
vector 780 RSUExampleScenario.node[151].veinsmobility speed ETV
vector 781 RSUExampleScenario.node[152].veinsmobility speed ETV
vector 782 RSUExampleScenario.node[153].veinsmobility speed ETV
vector 783 RSUExampleScenario.node[154].veinsmobility speed ETV
vector 784 RSUExampleScenario.node[155].veinsmobility speed ETV
vector 785 RSUExampleScenario.node[156].veinsmobility speed ETV
vector 786 RSUExampleScenario.node[180].veinsmobility posx ETV
vector 787 RSUExampleScenario.node[180].veinsmobility posy ETV
vector 788 RSUExampleScenario.node[181].veinsmobility posx ETV
vector 789 RSUExampleScenario.node[181].veinsmobility posy ETV
vector 790 RSUExampleScenario.node[182].veinsmobility posx ETV
vector 791 RSUExampleScenario.node[182].veinsmobility posy ETV
vector 792 RSUExampleScenario.node[183].veinsmobility posx ETV
vector 793 RSUExampleScenario.node[183].veinsmobility posy ETV
vector 794 RSUExampleScenario.node[184].veinsmobility posx ETV
vector 795 RSUExampleScenario.node[184].veinsmobility posy ETV
vector 796 RSUExampleScenario.node[185].veinsmobility posx ETV
vector 797 RSUExampleScenario.node[185].veinsmobility posy ETV
vector 798 RSUExampleScenario.node[186].veinsmobility posx ETV
vector 799 RSUExampleScenario.node[186].veinsmobility posy ETV
vector 800 RSUExampleScenario.node[187].veinsmobility posx ETV
vector 801 RSUExampleScenario.node[187].veinsmobility posy ETV
vector 802 RSUExampleScenario.node[188].veinsmobility posx ETV
vector 803 RSUExampleScenario.node[188].veinsmobility posy ETV
vector 804 RSUExampleScenario.node[189].veinsmobility posx ETV
vector 805 RSUExampleScenario.node[189].veinsmobility posy ETV
vector 806 RSUExampleScenario.node[190].veinsmobility posx ETV
vector 807 RSUExampleScenario.node[190].veinsmobility posy ETV
vector 808 RSUExampleScenario.node[191].veinsmobility posx ETV
vector 809 RSUExampleScenario.node[191].veinsmobility posy ETV
vector 810 RSUExampleScenario.node[192].veinsmobility posx ETV
vector 811 RSUExampleScenario.node[192].veinsmobility posy ETV
vector 812 RSUExampleScenario.node[193].veinsmobility posx ETV
vector 813 RSUExampleScenario.node[193].veinsmobility posy ETV
vector 814 RSUExampleScenario.node[194].veinsmobility posx ETV
vector 815 RSUExampleScenario.node[194].veinsmobility posy ETV
vector 816 RSUExampleScenario.node[195].veinsmobility posx ETV
vector 817 RSUExampleScenario.node[195].veinsmobility posy ETV
vector 818 RSUExampleScenario.node[196].veinsmobility posx ETV
vector 819 RSUExampleScenario.node[196].veinsmobility posy ETV
vector 820 RSUExampleScenario.node[197].veinsmobility posx ETV
vector 821 RSUExampleScenario.node[197].veinsmobility posy ETV
vector 822 RSUExampleScenario.node[198].veinsmobility posx ETV
vector 823 RSUExampleScenario.node[198].veinsmobility posy ETV
vector 824 RSUExampleScenario.node[199].veinsmobility posx ETV
vector 825 RSUExampleScenario.node[199].veinsmobility posy ETV
vector 826 RSUExampleScenario.node[200].veinsmobility posx ETV
vector 827 RSUExampleScenario.node[200].veinsmobility posy ETV
vector 828 RSUExampleScenario.node[201].veinsmobility posx ETV
vector 829 RSUExampleScenario.node[201].veinsmobility posy ETV
vector 830 RSUExampleScenario.node[202].veinsmobility posx ETV
vector 831 RSUExampleScenario.node[202].veinsmobility posy ETV
vector 832 RSUExampleScenario.node[203].veinsmobility posx ETV
vector 833 RSUExampleScenario.node[203].veinsmobility posy ETV
vector 834 RSUExampleScenario.node[204].veinsmobility posx ETV
vector 835 RSUExampleScenario.node[204].veinsmobility posy ETV
vector 836 RSUExampleScenario.node[205].veinsmobility posx ETV
vector 837 RSUExampleScenario.node[205].veinsmobility posy ETV
vector 838 RSUExampleScenario.node[206].veinsmobility posx ETV
vector 839 RSUExampleScenario.node[206].veinsmobility posy ETV
vector 840 RSUExampleScenario.node[136].veinsmobility acceleration ETV
vector 841 RSUExampleScenario.node[136].veinsmobility co2emission ETV
vector 842 RSUExampleScenario.node[137].veinsmobility acceleration ETV
vector 843 RSUExampleScenario.node[137].veinsmobility co2emission ETV
vector 844 RSUExampleScenario.node[138].veinsmobility acceleration ETV
vector 845 RSUExampleScenario.node[138].veinsmobility co2emission ETV
vector 846 RSUExampleScenario.node[139].veinsmobility acceleration ETV
vector 847 RSUExampleScenario.node[139].veinsmobility co2emission ETV
vector 848 RSUExampleScenario.node[140].veinsmobility acceleration ETV
vector 849 RSUExampleScenario.node[140].veinsmobility co2emission ETV
vector 850 RSUExampleScenario.node[141].veinsmobility acceleration ETV
vector 851 RSUExampleScenario.node[141].veinsmobility co2emission ETV
vector 852 RSUExampleScenario.node[142].veinsmobility acceleration ETV
vector 853 RSUExampleScenario.node[142].veinsmobility co2emission ETV
vector 854 RSUExampleScenario.node[143].veinsmobility acceleration ETV
vector 855 RSUExampleScenario.node[143].veinsmobility co2emission ETV
vector 856 RSUExampleScenario.node[144].veinsmobility acceleration ETV
vector 857 RSUExampleScenario.node[144].veinsmobility co2emission ETV
vector 858 RSUExampleScenario.node[145].veinsmobility acceleration ETV
vector 859 RSUExampleScenario.node[145].veinsmobility co2emission ETV
vector 860 RSUExampleScenario.node[146].veinsmobility acceleration ETV
vector 861 RSUExampleScenario.node[146].veinsmobility co2emission ETV
vector 862 RSUExampleScenario.node[147].veinsmobility acceleration ETV
vector 863 RSUExampleScenario.node[147].veinsmobility co2emission ETV
vector 864 RSUExampleScenario.node[148].veinsmobility acceleration ETV
vector 865 RSUExampleScenario.node[148].veinsmobility co2emission ETV
vector 866 RSUExampleScenario.node[149].veinsmobility acceleration ETV
vector 867 RSUExampleScenario.node[149].veinsmobility co2emission ETV
vector 868 RSUExampleScenario.node[150].veinsmobility acceleration ETV
vector 869 RSUExampleScenario.node[150].veinsmobility co2emission ETV
vector 870 RSUExampleScenario.node[151].veinsmobility acceleration ETV
vector 871 RSUExampleScenario.node[151].veinsmobility co2emission ETV
vector 872 RSUExampleScenario.node[152].veinsmobility acceleration ETV
vector 873 RSUExampleScenario.node[152].veinsmobility co2emission ETV
vector 874 RSUExampleScenario.node[153].veinsmobility acceleration ETV
vector 875 RSUExampleScenario.node[153].veinsmobility co2emission ETV
vector 876 RSUExampleScenario.node[154].veinsmobility acceleration ETV
vector 877 RSUExampleScenario.node[154].veinsmobility co2emission ETV
vector 878 RSUExampleScenario.node[155].veinsmobility acceleration ETV
vector 879 RSUExampleScenario.node[155].veinsmobility co2emission ETV
vector 880 RSUExampleScenario.node[156].veinsmobility acceleration ETV
vector 881 RSUExampleScenario.node[156].veinsmobility co2emission ETV
vector 882 RSUExampleScenario.node[157].veinsmobility speed ETV
vector 883 RSUExampleScenario.node[158].veinsmobility speed ETV
vector 884 RSUExampleScenario.node[159].veinsmobility speed ETV
vector 885 RSUExampleScenario.node[160].veinsmobility speed ETV
vector 886 RSUExampleScenario.node[161].veinsmobility speed ETV
vector 887 RSUExampleScenario.node[162].veinsmobility speed ETV
vector 888 RSUExampleScenario.node[163].veinsmobility speed ETV
vector 889 RSUExampleScenario.node[164].veinsmobility speed ETV
vector 890 RSUExampleScenario.node[165].veinsmobility speed ETV
vector 891 RSUExampleScenario.node[166].veinsmobility speed ETV
vector 892 RSUExampleScenario.node[167].veinsmobility speed ETV
vector 893 RSUExampleScenario.node[168].veinsmobility speed ETV
vector 894 RSUExampleScenario.node[169].veinsmobility speed ETV
vector 895 RSUExampleScenario.node[170].veinsmobility speed ETV
vector 896 RSUExampleScenario.node[171].veinsmobility speed ETV
vector 897 RSUExampleScenario.node[172].veinsmobility speed ETV
vector 898 RSUExampleScenario.node[173].veinsmobility speed ETV
vector 899 RSUExampleScenario.node[174].veinsmobility speed ETV
vector 900 RSUExampleScenario.node[175].veinsmobility speed ETV
vector 901 RSUExampleScenario.node[176].veinsmobility speed ETV
vector 902 RSUExampleScenario.node[177].veinsmobility speed ETV
vector 903 RSUExampleScenario.node[178].veinsmobility speed ETV
vector 904 RSUExampleScenario.node[179].veinsmobility speed ETV
vector 905 RSUExampleScenario.node[207].veinsmobility posx ETV
vector 906 RSUExampleScenario.node[207].veinsmobility posy ETV
vector 907 RSUExampleScenario.node[208].veinsmobility posx ETV
vector 908 RSUExampleScenario.node[208].veinsmobility posy ETV
vector 909 RSUExampleScenario.node[209].veinsmobility posx ETV
vector 910 RSUExampleScenario.node[209].veinsmobility posy ETV
vector 911 RSUExampleScenario.node[210].veinsmobility posx ETV
vector 912 RSUExampleScenario.node[210].veinsmobility posy ETV
vector 913 RSUExampleScenario.node[211].veinsmobility posx ETV
vector 914 RSUExampleScenario.node[211].veinsmobility posy ETV
vector 915 RSUExampleScenario.node[212].veinsmobility posx ETV
vector 916 RSUExampleScenario.node[212].veinsmobility posy ETV
vector 917 RSUExampleScenario.node[213].veinsmobility posx ETV
vector 918 RSUExampleScenario.node[213].veinsmobility posy ETV
vector 919 RSUExampleScenario.node[214].veinsmobility posx ETV
vector 920 RSUExampleScenario.node[214].veinsmobility posy ETV
vector 921 RSUExampleScenario.node[215].veinsmobility posx ETV
vector 922 RSUExampleScenario.node[215].veinsmobility posy ETV
vector 923 RSUExampleScenario.node[216].veinsmobility posx ETV
vector 924 RSUExampleScenario.node[216].veinsmobility posy ETV
vector 925 RSUExampleScenario.node[217].veinsmobility posx ETV
vector 926 RSUExampleScenario.node[217].veinsmobility posy ETV
vector 927 RSUExampleScenario.node[218].veinsmobility posx ETV
vector 928 RSUExampleScenario.node[218].veinsmobility posy ETV
vector 929 RSUExampleScenario.node[219].veinsmobility posx ETV
vector 930 RSUExampleScenario.node[219].veinsmobility posy ETV
vector 931 RSUExampleScenario.node[220].veinsmobility posx ETV
vector 932 RSUExampleScenario.node[220].veinsmobility posy ETV
vector 933 RSUExampleScenario.node[221].veinsmobility posx ETV
vector 934 RSUExampleScenario.node[221].veinsmobility posy ETV
vector 935 RSUExampleScenario.node[222].veinsmobility posx ETV
vector 936 RSUExampleScenario.node[222].veinsmobility posy ETV
vector 937 RSUExampleScenario.node[223].veinsmobility posx ETV
vector 938 RSUExampleScenario.node[223].veinsmobility posy ETV
vector 939 RSUExampleScenario.node[224].veinsmobility posx ETV
vector 940 RSUExampleScenario.node[224].veinsmobility posy ETV
vector 941 RSUExampleScenario.node[225].veinsmobility posx ETV
vector 942 RSUExampleScenario.node[225].veinsmobility posy ETV
vector 943 RSUExampleScenario.node[226].veinsmobility posx ETV
vector 944 RSUExampleScenario.node[226].veinsmobility posy ETV
vector 945 RSUExampleScenario.node[227].veinsmobility posx ETV
vector 946 RSUExampleScenario.node[227].veinsmobility posy ETV
vector 947 RSUExampleScenario.node[157].veinsmobility acceleration ETV
vector 948 RSUExampleScenario.node[157].veinsmobility co2emission ETV
vector 949 RSUExampleScenario.node[158].veinsmobility acceleration ETV
vector 950 RSUExampleScenario.node[158].veinsmobility co2emission ETV
vector 951 RSUExampleScenario.node[159].veinsmobility acceleration ETV
vector 952 RSUExampleScenario.node[159].veinsmobility co2emission ETV
vector 953 RSUExampleScenario.node[160].veinsmobility acceleration ETV
vector 954 RSUExampleScenario.node[160].veinsmobility co2emission ETV
vector 955 RSUExampleScenario.node[161].veinsmobility acceleration ETV
vector 956 RSUExampleScenario.node[161].veinsmobility co2emission ETV
vector 957 RSUExampleScenario.node[162].veinsmobility acceleration ETV
vector 958 RSUExampleScenario.node[162].veinsmobility co2emission ETV
vector 959 RSUExampleScenario.node[163].veinsmobility acceleration ETV
vector 960 RSUExampleScenario.node[163].veinsmobility co2emission ETV
vector 961 RSUExampleScenario.node[164].veinsmobility acceleration ETV
vector 962 RSUExampleScenario.node[164].veinsmobility co2emission ETV
vector 963 RSUExampleScenario.node[165].veinsmobility acceleration ETV
vector 964 RSUExampleScenario.node[165].veinsmobility co2emission ETV
vector 965 RSUExampleScenario.node[166].veinsmobility acceleration ETV
vector 966 RSUExampleScenario.node[166].veinsmobility co2emission ETV
vector 967 RSUExampleScenario.node[167].veinsmobility acceleration ETV
vector 968 RSUExampleScenario.node[167].veinsmobility co2emission ETV
vector 969 RSUExampleScenario.node[168].veinsmobility acceleration ETV
vector 970 RSUExampleScenario.node[168].veinsmobility co2emission ETV
vector 971 RSUExampleScenario.node[169].veinsmobility acceleration ETV
vector 972 RSUExampleScenario.node[169].veinsmobility co2emission ETV
vector 973 RSUExampleScenario.node[170].veinsmobility acceleration ETV
vector 974 RSUExampleScenario.node[170].veinsmobility co2emission ETV
vector 975 RSUExampleScenario.node[171].veinsmobility acceleration ETV
vector 976 RSUExampleScenario.node[171].veinsmobility co2emission ETV
vector 977 RSUExampleScenario.node[172].veinsmobility acceleration ETV
vector 978 RSUExampleScenario.node[172].veinsmobility co2emission ETV
vector 979 RSUExampleScenario.node[173].veinsmobility acceleration ETV
vector 980 RSUExampleScenario.node[173].veinsmobility co2emission ETV
vector 981 RSUExampleScenario.node[174].veinsmobility acceleration ETV
vector 982 RSUExampleScenario.node[174].veinsmobility co2emission ETV
vector 983 RSUExampleScenario.node[175].veinsmobility acceleration ETV
vector 984 RSUExampleScenario.node[175].veinsmobility co2emission ETV
vector 985 RSUExampleScenario.node[176].veinsmobility acceleration ETV
vector 986 RSUExampleScenario.node[176].veinsmobility co2emission ETV
vector 987 RSUExampleScenario.node[177].veinsmobility acceleration ETV
vector 988 RSUExampleScenario.node[177].veinsmobility co2emission ETV
vector 989 RSUExampleScenario.node[178].veinsmobility acceleration ETV
vector 990 RSUExampleScenario.node[178].veinsmobility co2emission ETV
vector 991 RSUExampleScenario.node[179].veinsmobility acceleration ETV
vector 992 RSUExampleScenario.node[179].veinsmobility co2emission ETV
vector 993 RSUExampleScenario.node[180].veinsmobility speed ETV
vector 994 RSUExampleScenario.node[181].veinsmobility speed ETV
vector 995 RSUExampleScenario.node[182].veinsmobility speed ETV
vector 996 RSUExampleScenario.node[183].veinsmobility speed ETV
vector 997 RSUExampleScenario.node[184].veinsmobility speed ETV
vector 998 RSUExampleScenario.node[185].veinsmobility speed ETV
vector 999 RSUExampleScenario.node[186].veinsmobility speed ETV
vector 1000 RSUExampleScenario.node[187].veinsmobility speed ETV
vector 1001 RSUExampleScenario.node[188].veinsmobility speed ETV
vector 1002 RSUExampleScenario.node[189].veinsmobility speed ETV
vector 1003 RSUExampleScenario.node[190].veinsmobility speed ETV
vector 1004 RSUExampleScenario.node[191].veinsmobility speed ETV
vector 1005 RSUExampleScenario.node[192].veinsmobility speed ETV
vector 1006 RSUExampleScenario.node[193].veinsmobility speed ETV
vector 1007 RSUExampleScenario.node[194].veinsmobility speed ETV
vector 1008 RSUExampleScenario.node[195].veinsmobility speed ETV
vector 1009 RSUExampleScenario.node[196].veinsmobility speed ETV
vector 1010 RSUExampleScenario.node[197].veinsmobility speed ETV
vector 1011 RSUExampleScenario.node[198].veinsmobility speed ETV
vector 1012 RSUExampleScenario.node[199].veinsmobility speed ETV
vector 1013 RSUExampleScenario.node[200].veinsmobility speed ETV
vector 1014 RSUExampleScenario.node[201].veinsmobility speed ETV
vector 1015 RSUExampleScenario.node[202].veinsmobility speed ETV
vector 1016 RSUExampleScenario.node[203].veinsmobility speed ETV
vector 1017 RSUExampleScenario.node[204].veinsmobility speed ETV
vector 1018 RSUExampleScenario.node[205].veinsmobility speed ETV
vector 1019 RSUExampleScenario.node[206].veinsmobility speed ETV
vector 1020 RSUExampleScenario.node[228].veinsmobility posx ETV
vector 1021 RSUExampleScenario.node[228].veinsmobility posy ETV
vector 1022 RSUExampleScenario.node[229].veinsmobility posx ETV
vector 1023 RSUExampleScenario.node[229].veinsmobility posy ETV
vector 1024 RSUExampleScenario.node[230].veinsmobility posx ETV
vector 1025 RSUExampleScenario.node[230].veinsmobility posy ETV
vector 1026 RSUExampleScenario.node[231].veinsmobility posx ETV
vector 1027 RSUExampleScenario.node[231].veinsmobility posy ETV
vector 1028 RSUExampleScenario.node[232].veinsmobility posx ETV
vector 1029 RSUExampleScenario.node[232].veinsmobility posy ETV
vector 1030 RSUExampleScenario.node[233].veinsmobility posx ETV
vector 1031 RSUExampleScenario.node[233].veinsmobility posy ETV
vector 1032 RSUExampleScenario.node[234].veinsmobility posx ETV
vector 1033 RSUExampleScenario.node[234].veinsmobility posy ETV
vector 1034 RSUExampleScenario.node[235].veinsmobility posx ETV
vector 1035 RSUExampleScenario.node[235].veinsmobility posy ETV
vector 1036 RSUExampleScenario.node[236].veinsmobility posx ETV
vector 1037 RSUExampleScenario.node[236].veinsmobility posy ETV
vector 1038 RSUExampleScenario.node[237].veinsmobility posx ETV
vector 1039 RSUExampleScenario.node[237].veinsmobility posy ETV
vector 1040 RSUExampleScenario.node[238].veinsmobility posx ETV
vector 1041 RSUExampleScenario.node[238].veinsmobility posy ETV
vector 1042 RSUExampleScenario.node[239].veinsmobility posx ETV
vector 1043 RSUExampleScenario.node[239].veinsmobility posy ETV
vector 1044 RSUExampleScenario.node[240].veinsmobility posx ETV
vector 1045 RSUExampleScenario.node[240].veinsmobility posy ETV
vector 1046 RSUExampleScenario.node[241].veinsmobility posx ETV
vector 1047 RSUExampleScenario.node[241].veinsmobility posy ETV
vector 1048 RSUExampleScenario.node[242].veinsmobility posx ETV
vector 1049 RSUExampleScenario.node[242].veinsmobility posy ETV
vector 1050 RSUExampleScenario.node[243].veinsmobility posx ETV
vector 1051 RSUExampleScenario.node[243].veinsmobility posy ETV
vector 1052 RSUExampleScenario.node[244].veinsmobility posx ETV
vector 1053 RSUExampleScenario.node[244].veinsmobility posy ETV
vector 1054 RSUExampleScenario.node[245].veinsmobility posx ETV
vector 1055 RSUExampleScenario.node[245].veinsmobility posy ETV
vector 1056 RSUExampleScenario.node[246].veinsmobility posx ETV
vector 1057 RSUExampleScenario.node[246].veinsmobility posy ETV
vector 1058 RSUExampleScenario.node[247].veinsmobility posx ETV
vector 1059 RSUExampleScenario.node[247].veinsmobility posy ETV
vector 1060 RSUExampleScenario.node[180].veinsmobility acceleration ETV
vector 1061 RSUExampleScenario.node[180].veinsmobility co2emission ETV
vector 1062 RSUExampleScenario.node[181].veinsmobility acceleration ETV
vector 1063 RSUExampleScenario.node[181].veinsmobility co2emission ETV
vector 1064 RSUExampleScenario.node[182].veinsmobility acceleration ETV
vector 1065 RSUExampleScenario.node[182].veinsmobility co2emission ETV
vector 1066 RSUExampleScenario.node[183].veinsmobility acceleration ETV
vector 1067 RSUExampleScenario.node[183].veinsmobility co2emission ETV
vector 1068 RSUExampleScenario.node[184].veinsmobility acceleration ETV
vector 1069 RSUExampleScenario.node[184].veinsmobility co2emission ETV
vector 1070 RSUExampleScenario.node[185].veinsmobility acceleration ETV
vector 1071 RSUExampleScenario.node[185].veinsmobility co2emission ETV
vector 1072 RSUExampleScenario.node[186].veinsmobility acceleration ETV
vector 1073 RSUExampleScenario.node[186].veinsmobility co2emission ETV
vector 1074 RSUExampleScenario.node[187].veinsmobility acceleration ETV
vector 1075 RSUExampleScenario.node[187].veinsmobility co2emission ETV
vector 1076 RSUExampleScenario.node[188].veinsmobility acceleration ETV
vector 1077 RSUExampleScenario.node[188].veinsmobility co2emission ETV
vector 1078 RSUExampleScenario.node[189].veinsmobility acceleration ETV
vector 1079 RSUExampleScenario.node[189].veinsmobility co2emission ETV
vector 1080 RSUExampleScenario.node[190].veinsmobility acceleration ETV
vector 1081 RSUExampleScenario.node[190].veinsmobility co2emission ETV
vector 1082 RSUExampleScenario.node[191].veinsmobility acceleration ETV
vector 1083 RSUExampleScenario.node[191].veinsmobility co2emission ETV
vector 1084 RSUExampleScenario.node[192].veinsmobility acceleration ETV
vector 1085 RSUExampleScenario.node[192].veinsmobility co2emission ETV
vector 1086 RSUExampleScenario.node[193].veinsmobility acceleration ETV
vector 1087 RSUExampleScenario.node[193].veinsmobility co2emission ETV
vector 1088 RSUExampleScenario.node[194].veinsmobility acceleration ETV
vector 1089 RSUExampleScenario.node[194].veinsmobility co2emission ETV
vector 1090 RSUExampleScenario.node[195].veinsmobility acceleration ETV
vector 1091 RSUExampleScenario.node[195].veinsmobility co2emission ETV
vector 1092 RSUExampleScenario.node[196].veinsmobility acceleration ETV
vector 1093 RSUExampleScenario.node[196].veinsmobility co2emission ETV
vector 1094 RSUExampleScenario.node[197].veinsmobility acceleration ETV
vector 1095 RSUExampleScenario.node[197].veinsmobility co2emission ETV
vector 1096 RSUExampleScenario.node[198].veinsmobility acceleration ETV
vector 1097 RSUExampleScenario.node[198].veinsmobility co2emission ETV
vector 1098 RSUExampleScenario.node[199].veinsmobility acceleration ETV
vector 1099 RSUExampleScenario.node[199].veinsmobility co2emission ETV
vector 1100 RSUExampleScenario.node[200].veinsmobility acceleration ETV
vector 1101 RSUExampleScenario.node[200].veinsmobility co2emission ETV
vector 1102 RSUExampleScenario.node[201].veinsmobility acceleration ETV
vector 1103 RSUExampleScenario.node[201].veinsmobility co2emission ETV
vector 1104 RSUExampleScenario.node[202].veinsmobility acceleration ETV
vector 1105 RSUExampleScenario.node[202].veinsmobility co2emission ETV
vector 1106 RSUExampleScenario.node[203].veinsmobility acceleration ETV
vector 1107 RSUExampleScenario.node[203].veinsmobility co2emission ETV
vector 1108 RSUExampleScenario.node[204].veinsmobility acceleration ETV
vector 1109 RSUExampleScenario.node[204].veinsmobility co2emission ETV
vector 1110 RSUExampleScenario.node[205].veinsmobility acceleration ETV
vector 1111 RSUExampleScenario.node[205].veinsmobility co2emission ETV
vector 1112 RSUExampleScenario.node[206].veinsmobility acceleration ETV
vector 1113 RSUExampleScenario.node[206].veinsmobility co2emission ETV
vector 1114 RSUExampleScenario.node[207].veinsmobility speed ETV
vector 1115 RSUExampleScenario.node[208].veinsmobility speed ETV
vector 1116 RSUExampleScenario.node[209].veinsmobility speed ETV
vector 1117 RSUExampleScenario.node[210].veinsmobility speed ETV
vector 1118 RSUExampleScenario.node[211].veinsmobility speed ETV
vector 1119 RSUExampleScenario.node[212].veinsmobility speed ETV
vector 1120 RSUExampleScenario.node[213].veinsmobility speed ETV
vector 1121 RSUExampleScenario.node[214].veinsmobility speed ETV
vector 1122 RSUExampleScenario.node[215].veinsmobility speed ETV
vector 1123 RSUExampleScenario.node[216].veinsmobility speed ETV
vector 1124 RSUExampleScenario.node[217].veinsmobility speed ETV
vector 1125 RSUExampleScenario.node[218].veinsmobility speed ETV
vector 1126 RSUExampleScenario.node[219].veinsmobility speed ETV
vector 1127 RSUExampleScenario.node[220].veinsmobility speed ETV
vector 1128 RSUExampleScenario.node[221].veinsmobility speed ETV
vector 1129 RSUExampleScenario.node[222].veinsmobility speed ETV
vector 1130 RSUExampleScenario.node[223].veinsmobility speed ETV
vector 1131 RSUExampleScenario.node[224].veinsmobility speed ETV
vector 1132 RSUExampleScenario.node[225].veinsmobility speed ETV
vector 1133 RSUExampleScenario.node[226].veinsmobility speed ETV
vector 1134 RSUExampleScenario.node[227].veinsmobility speed ETV
vector 1135 RSUExampleScenario.node[248].veinsmobility posx ETV
vector 1136 RSUExampleScenario.node[248].veinsmobility posy ETV
vector 1137 RSUExampleScenario.node[249].veinsmobility posx ETV
vector 1138 RSUExampleScenario.node[249].veinsmobility posy ETV
vector 1139 RSUExampleScenario.node[250].veinsmobility posx ETV
vector 1140 RSUExampleScenario.node[250].veinsmobility posy ETV
vector 1141 RSUExampleScenario.node[251].veinsmobility posx ETV
vector 1142 RSUExampleScenario.node[251].veinsmobility posy ETV
vector 1143 RSUExampleScenario.node[252].veinsmobility posx ETV
vector 1144 RSUExampleScenario.node[252].veinsmobility posy ETV
vector 1145 RSUExampleScenario.node[253].veinsmobility posx ETV
vector 1146 RSUExampleScenario.node[253].veinsmobility posy ETV
vector 1147 RSUExampleScenario.node[254].veinsmobility posx ETV
vector 1148 RSUExampleScenario.node[254].veinsmobility posy ETV
vector 1149 RSUExampleScenario.node[255].veinsmobility posx ETV
vector 1150 RSUExampleScenario.node[255].veinsmobility posy ETV
vector 1151 RSUExampleScenario.node[256].veinsmobility posx ETV
vector 1152 RSUExampleScenario.node[256].veinsmobility posy ETV
vector 1153 RSUExampleScenario.node[257].veinsmobility posx ETV
vector 1154 RSUExampleScenario.node[257].veinsmobility posy ETV
vector 1155 RSUExampleScenario.node[258].veinsmobility posx ETV
vector 1156 RSUExampleScenario.node[258].veinsmobility posy ETV
vector 1157 RSUExampleScenario.node[259].veinsmobility posx ETV
vector 1158 RSUExampleScenario.node[259].veinsmobility posy ETV
vector 1159 RSUExampleScenario.node[260].veinsmobility posx ETV
vector 1160 RSUExampleScenario.node[260].veinsmobility posy ETV
vector 1161 RSUExampleScenario.node[261].veinsmobility posx ETV
vector 1162 RSUExampleScenario.node[261].veinsmobility posy ETV
vector 1163 RSUExampleScenario.node[262].veinsmobility posx ETV
vector 1164 RSUExampleScenario.node[262].veinsmobility posy ETV
vector 1165 RSUExampleScenario.node[263].veinsmobility posx ETV
vector 1166 RSUExampleScenario.node[263].veinsmobility posy ETV
vector 1167 RSUExampleScenario.node[264].veinsmobility posx ETV
vector 1168 RSUExampleScenario.node[264].veinsmobility posy ETV
vector 1169 RSUExampleScenario.node[265].veinsmobility posx ETV
vector 1170 RSUExampleScenario.node[265].veinsmobility posy ETV
vector 1171 RSUExampleScenario.node[266].veinsmobility posx ETV
vector 1172 RSUExampleScenario.node[266].veinsmobility posy ETV
vector 1173 RSUExampleScenario.node[267].veinsmobility posx ETV
vector 1174 RSUExampleScenario.node[267].veinsmobility posy ETV
vector 1175 RSUExampleScenario.node[268].veinsmobility posx ETV
vector 1176 RSUExampleScenario.node[268].veinsmobility posy ETV
vector 1177 RSUExampleScenario.node[269].veinsmobility posx ETV
vector 1178 RSUExampleScenario.node[269].veinsmobility posy ETV
vector 1179 RSUExampleScenario.node[270].veinsmobility posx ETV
vector 1180 RSUExampleScenario.node[270].veinsmobility posy ETV
vector 1181 RSUExampleScenario.node[271].veinsmobility posx ETV
vector 1182 RSUExampleScenario.node[271].veinsmobility posy ETV
vector 1183 RSUExampleScenario.node[272].veinsmobility posx ETV
vector 1184 RSUExampleScenario.node[272].veinsmobility posy ETV
[...]
1313	393425 62 932654 1188086 13 14 2 0.67356072287075 1.09477675776 1.7683374806307 1.6522201967256
1314	393487 63 932654 1188086 13 14 2 1.4615561143807 1.9740097496036 3.4355658639843 6.0328607670137
1315	393550 63 932654 1188086 13 14 2 1.9228533130232 4.3514982783236 6.2743515913468 22.632902129657
1316	393613 63 932654 1188086 13 14 2 7.0040847712903 11.429744670455 18.433829441745 179.69626671521
1317	393676 63 932654 1188086 13 14 2 3.8334479432087 4.0221963941585 7.8556443373673 30.873386966473
1318	393739 63 932654 1188086 13 14 2 8.7979344284974 13.358695826743 22.156630255241 255.85840439959
1319	393802 63 932654 1188086 13 14 2 3.5491504756361 3.9175264583901 7.4666769340262 27.943482650894
1320	393865 63 932654 1188086 13 14 2 9.7219010191502 12.270994580236 21.992895599386 245.09266741434
1321	393928 62 932654 1188086 13 14 2 3.8464916160889 4.754160168115 8.6006517842039 37.397536656734
1322	393990 63 932654 1188086 13 14 2 12.481921105154 14.303511199819 26.785432304973 360.38878711864
1323	394053 63 932654 1188086 13 14 2 3.2075438399334 3.2443606560118 6.4519044959452 20.814213551372
1324	394116 63 932654 1188086 13 14 2 6.3037480965092 9.1100191467087 15.413767243218 122.72968891764
1325	394179 63 932654 1188086 13 14 2 1.6199429173023 2.1424828904448 3.7624258077471 7.2144479911665
1326	394242 63 932654 1188086 13 14 2 3.5011234729045 3.6913745584219 7.1924980313264 25.884111703087
1327	394305 63 932654 1188086 13 14 2 1.3819937563967 1.3823977574008 2.7643915137975 3.8209303023861
1328	394368 63 932654 1188086 13 14 2 2.4571420941815 2.9906116170411 5.4477537112226 14.98130511498
1329	394431 63 932654 1188086 13 14 2 2.1854074829491 2.5480093527585 4.7334168357076 11.268357528275
1330	394494 62 932654 1188086 13 14 2 3.403780488641 4.3708589863537 7.7746394749946 30.690129893442
1331	394556 63 932654 1188086 13 14 2 1.6575076776557 2.5572282614186 4.2147359390743 9.2867480824857
1332	394619 63 932654 1188086 13 14 2 3.8009268542972 3.9810111806249 7.7819380349221 30.295494971978
1333	394682 63 932654 1188086 13 14 2 1.3002488515573 2.3815447257366 3.6817935772939 7.3624023566598
1334	394745 63 932654 1188086 13 14 2 3.3512626896682 4.1311457900171 7.4824084796853 28.297327153538
1335	394808 66 932654 1188086 13 14 2 0.087171229501514 0.37366153038521 0.46083275988672 0.14722176254262
1336	394874 63 932654 1188086 13 14 2 1.1676305271873 1.2768213928981 2.4444519200854 2.993633917382
1337	394937 65 932654 1188086 13 14 2 0.25898748059321 0.76125357490393 1.0202410554971 0.64658152040803
1338	395002 63 932654 1188086 13 14 2 1.1727535639558 1.4179646977399 2.5907182616957 3.3859748058077
1339	395065 65 932654 1188086 13 14 2 -0.16964122429878 0.1811320443974 0.011490820098617 0.06158696248917
1340	395130 53 932654 1188086 13 14 2 0.973 1.2009909575907 2.1739909575907 2.3891082802147
1341	395183 64 932654 1188086 13 14 2 -0.22612736469859 0.123036117778 -0.10309124692059 0.066271471343412
1342	395247 53 932654 1188086 13 14 2 0.973 1.1958251120308 2.1688251120308 2.3767266985634
1343	395300 67 932654 1188086 13 14 2 -0.1183354727497 -0.046712989893017 -0.16504846264272 0.01618538753564
1344	395367 53 932654 1188086 13 14 2 0.973 1.1529170842491 2.1259170842491 2.2759468031535
1345	395420 61 932654 1188086 13 14 2 0.10841403644817 0.1673753438 0.27578938024817 0.039768109011154
1346	395481 61 932654 1188086 13 14 2 1.197926339063 1.229597563343 2.427523902406 2.9469376815999
1347	395542 63 932654 1188086 13 14 2 1.1976837883238 2.0987760494929 3.2964598378167 5.8393073627385
1348	395605 64 932654 1188086 13 14 2 0.75189817431383 1.9008525276091 2.6527507019229 4.1785911962544
1349	395669 63 932654 1188086 13 14 2 3.0878056779038 7.2242979230359 10.31210360094 61.725024385276
1350	395732 63 932654 1188086 13 14 2 3.1886488592718 8.8662311586086 12.05488001788 88.777536505617
1351	395795 63 932654 1188086 13 14 2 4.4578365781344 7.4655282015447 11.923364779679 75.606418285412
1352	395858 63 932654 1188086 13 14 2 5.5204641411547 10.175356609281 15.695820750436 134.01340645982
1353	395921 63 932654 1188086 13 14 2 4.4268605830148 9.1028961706907 13.529756753705 102.45981331582
1354	395984 63 932654 1188086 13 14 2 5.6042902562767 11.466249530436 17.070539786713 162.88294757083
1355	396047 63 932654 1188086 13 14 2 5.7075198430102 10.618855850771 16.326375693781 145.33588233781
1356	396110 63 932654 1188086 13 14 2 4.5618463328574 8.0599013906904 12.621747723548 85.772452392257
1357	396173 62 932654 1188086 13 14 2 4.193312472431 8.4201163309626 12.613428803394 88.482228518389
1358	396235 64 932654 1188086 13 14 2 0.77654616536657 2.1303205583948 2.9068667237614 5.141289628465
1359	396299 63 932654 1188086 13 14 2 2.1589188868666 4.9852282874042 7.1441471742708 29.513431837604
1360	396362 63 932654 1188086 13 14 2 1.3278881882783 3.2813243045239 4.6092124928022 12.530376232028
1361	396425 61 932654 1188086 13 14 2 2.046270263521 4.432435330376 6.478705593897 23.833704949336
1362	396486 63 932654 1188086 13 14 2 2.0109774767421 4.5608530619647 6.5718305387069 24.845411064797
1363	396549 63 932654 1188086 13 14 2 1.4925901825773 4.0337853480596 5.5263755306369 18.499249687346
1364	396612 63 932654 1188086 13 14 2 2.1813774583163 4.6873219779227 6.868699436239 26.729394940367
1365	396675 63 932654 1188086 13 14 2 2.3393291867804 3.7971487004543 6.1364778872347 19.890799297484
1366	396738 63 932654 1188086 13 14 2 2.2394576482475 3.7137285380857 5.9531861863332 18.806950212886
1367	396801 63 932654 1188086 13 14 2 1.0438092028683 1.2270292837962 2.2708384866645 2.595138515286
1368	396864 64 932654 1188086 13 14 2 0.87785146056881 1.0444650715928 1.9223165321617 1.8615304726002
1369	396928 64 932654 1188086 13 14 2 0.96598012799708 1.0744938494301 2.0404739774272 2.0876546401484
1370	396992 63 932654 1188086 13 14 2 1.0521071862766 1.2284235742603 2.2805307605369 2.6159540092132
1371	397055 64 932654 1188086 13 14 2 0.78695240501677 1.2648750230761 2.0518274280928 2.2192029117633
1372	397119 64 932654 1188086 13 14 2 0.91545837106726 1.2906204991547 2.206078870222 2.5037653019955
1373	397183 63 932654 1188086 13 14 2 1.1142056745787 1.1629883293709 2.2771940039497 2.5939961395164
1374	397246 64 932654 1188086 13 14 2 0.71962431247812 1.2077052081521 1.9273295206302 1.9764110209074
1375	397310 62 932654 1188086 13 14 2 0.9945513858434 1.356384476498 2.3509358623414 2.8289113071679
1376	397372 63 932654 1188086 13 14 2 1.2237028073752 2.2075360139948 3.4312388213701 6.3706638138622
1377	397435 64 932654 1188086 13 14 2 0.91946915324079 2.1075419420376 3.0270110952784 5.2871565612091
1378	397499 32 1188086 1188086 14 14 1 2211.7789599405 2211.7789599405 2211.7789599405 4891966.1676355
1379	397531 31 1188086 1188086 14 14 1 7465.380155599 7465.380155599 7465.380155599 55731900.867611
1380	397562 32 1188086 1188086 14 14 1 1860.7331729785 1860.7331729785 1860.7331729785 3462327.9410227
1381	397594 31 1188086 1188086 14 14 1 6566.573111566 6566.573111566 6566.573111566 43119882.429542
1382	397625 24 1188086 1188086 14 14 1 2369.69 2369.69 2369.69 5615430.6961
1383	397649 32 1188086 1188086 14 14 1 6747.5944235083 6747.5944235083 6747.5944235083 45530030.50416
1384	397681 32 1188086 1188086 14 14 1 2340.0933194527 2340.0933194527 2340.0933194527 5476036.7437472
1385	397713 32 1188086 1188086 14 14 1 6659.8501546698 6659.8501546698 6659.8501546698 44353604.082656
1386	397745 31 1188086 1188086 14 14 1 2053.390294078 2053.390294078 2053.390294078 4216411.6998137
1387	397776 32 1188086 1188086 14 14 1 6494.9336343329 6494.9336343329 6494.9336343329 42184162.914389
1388	397808 32 1188086 1188086 14 14 1 2677.2759515214 2677.2759515214 2677.2759515214 7167806.5205948
1389	397840 32 1188086 1188086 14 14 1 6671.5076843734 6671.5076843734 6671.5076843734 44509014.782653
1390	397872 32 1188086 1188086 14 14 1 2951.8878723815 2951.8878723815 2951.8878723815 8713642.0111131
1391	397904 32 1188086 1188086 14 14 1 6539.9199917605 6539.9199917605 6539.9199917605 42770553.498629
1392	397936 32 1188086 1188086 14 14 1 2870.7288881702 2870.7288881702 2870.7288881702 8241084.3493748
1393	397968 32 1188086 1188086 14 14 1 6206.0050033276 6206.0050033276 6206.0050033276 38514498.101328
1394	398000 31 1188086 1188086 14 14 1 3224.162410455 3224.162410455 3224.162410455 10395223.248991
1395	398031 32 1188086 1188086 14 14 1 6463.0572894482 6463.0572894482 6463.0572894482 41771109.52669
1396	398063 32 1188086 1188086 14 14 1 2261.0876799899 2261.0876799899 2261.0876799899 5112517.4966022
1397	398095 32 1188086 1188086 14 14 1 6743.1917904426 6743.1917904426 6743.1917904426 45470635.522692
1398	398127 32 1188086 1188086 14 14 1 2361.0663026274 2361.0663026274 2361.0663026274 5574634.0854025
1399	398159 32 1188086 1188086 14 14 1 6397.8122612645 6397.8122612645 6397.8122612645 40932001.730386
1400	398191 32 1188086 1188086 14 14 1 2761.1742423304 2761.1742423304 2761.1742423304 7624083.1965089
1401	398223 32 1188086 1188086 14 14 1 6948.5067384505 6948.5067384505 6948.5067384505 48281745.894291
1402	398255 32 1188086 1188086 14 14 1 1725.5198600952 1725.5198600952 1725.5198600952 2977418.787583
1403	398287 32 1188086 1188086 14 14 1 6972.9805613605 6972.9805613605 6972.9805613605 48622457.909111
1404	398319 32 1188086 1188086 14 14 1 2278.1166280901 2278.1166280901 2278.1166280901 5189815.3711805
1405	398351 32 1188086 1188086 14 14 1 6114.2831611357 6114.2831611357 6114.2831611357 37384458.574547
1406	398383 31 1188086 1188086 14 14 1 2851.020307552 2851.020307552 2851.020307552 8128316.7940736
1407	398414 32 1188086 1188086 14 14 1 6205.6904885906 6205.6904885906 6205.6904885906 38510594.440184
1408	398446 31 1188086 1188086 14 14 1 2315.170356811 2315.170356811 2315.170356811 5360013.7810565
1409	398477 32 1188086 1188086 14 14 1 6433.1247783564 6433.1247783564 6433.1247783564 41385094.413903
1410	398509 32 1188086 1188086 14 14 1 2887.4495592118 2887.4495592118 2887.4495592118 8337364.9569924
1411	398541 32 1188086 1188086 14 14 1 6536.6078385601 6536.6078385601 6536.6078385601 42727242.035125
1412	398573 32 1188086 1188086 14 14 1 2329.3600576956 2329.3600576956 2329.3600576956 5425918.2783877
1413	398605 32 1188086 1188086 14 14 1 6237.4572736295 6237.4572736295 6237.4572736295 38905873.240354
1414	398637 32 1188086 1188086 14 14 1 2273.3036842405 2273.3036842405 2273.3036842405 5167909.6407815
1415	398669 32 1188086 1188086 14 14 1 6111.1308328771 6111.1308328771 6111.1308328771 37345920.056541
1416	398701 32 1188086 1188086 14 14 1 2012.6174508391 2012.6174508391 2012.6174508391 4050629.003422
1417	398733 32 1188086 1188086 14 14 1 6730.7921136621 6730.7921136621 6730.7921136621 45303562.477336
1418	398765 32 1188086 1188086 14 14 1 2403.3444718829 2403.3444718829 2403.3444718829 5776064.6505301
1419	398797 31 1188086 1188086 14 14 1 6753.954228866 6753.954228866 6753.954228866 45615897.725618
1420	398828 32 1188086 1188086 14 14 1 2192.5000310034 2192.5000310034 2192.5000310034 4807056.3859498
1421	398860 32 1188086 1188086 14 14 1 6497.4338895152 6497.4338895152 6497.4338895152 42216647.148621
1422	398892 31 1188086 1188086 14 14 1 2249.731092437 2249.731092437 2249.731092437 5061289.9882777
1423	398923 32 1188086 1188086 14 14 1 6511.1871308523 6511.1871308523 6511.1871308523 42395557.852977
1424	398955 33 1188086 1188086 14 14 1 0.90109226116911 0.90109226116911 0.90109226116911 0.81196726313885
1425	398988 32 1188086 1188086 14 14 1 1.6678759787543 1.6678759787543 1.6678759787543 2.7818102805056
1426	399020 32 1188086 1188086 14 14 1 1.1489543532953 1.1489543532953 1.1489543532953 1.3200961059561
1427	399052 32 1188086 1188086 14 14 1 1.7286738675382 1.7286738675382 1.7286738675382 2.9883133403094
1428	399084 32 1188086 1188086 14 14 1 4.1364922451321 4.1364922451321 4.1364922451321 17.110568094038
1429	399116 32 1188086 1188086 14 14 1 8.6951944386733 8.6951944386733 8.6951944386733 75.606406326335
1430	399148 32 1188086 1188086 14 14 1 5.6775822993368 5.6775822993368 5.6775822993368 32.234940765742
1431	399180 32 1188086 1188086 14 14 1 13.733733211659 13.733733211659 13.733733211659 188.61542792901
1432	399212 32 1188086 1188086 14 14 1 3.0076916234102 3.0076916234102 3.0076916234102 9.0462089015319
1433	399244 32 1188086 1188086 14 14 1 6.9199901072242 6.9199901072242 6.9199901072242 47.886263084081
1434	399276 32 1188086 1188086 14 14 1 4.6548924681265 4.6548924681265 4.6548924681265 21.668023889821
1435	399308 32 1188086 1188086 14 14 1 13.113194567151 13.113194567151 13.113194567151 171.95587175595
1436	399340 32 1188086 1188086 14 14 1 4.6760355876759 4.6760355876759 4.6760355876759 21.865308817211
1437	399372 32 1188086 1188086 14 14 1 11.877081656877 11.877081656877 11.877081656877 141.06506868413
1438	399404 32 1188086 1188086 14 14 1 5.8619592741597 5.8619592741597 5.8619592741597 34.362566531907
1439	399436 31 1188086 1188086 14 14 1 18.00113498773 18.00113498773 18.00113498773 324.04086084646
1440	399467 32 1188086 1188086 14 14 1 4.9113360077608 4.9113360077608 4.9113360077608 24.121221381128
1441	399499 32 1188086 1188086 14 14 1 14.301683882543 14.301683882543 14.301683882543 204.53816187619
1442	399531 31 1188086 1188086 14 14 1 3.498055057833 3.498055057833 3.498055057833 12.236389187631
1443	399562 32 1188086 1188086 14 14 1 8.3419269574204 8.3419269574204 8.3419269574204 69.587745362937
1444	399594 32 1188086 1188086 14 14 1 4.2268038585316 4.2268038585316 4.2268038585316 17.865870858498
1445	399626 32 1188086 1188086 14 14 1 10.148567483819 10.148567483819 10.148567483819 102.99342197364
1446	399658 32 1188086 1188086 14 14 1 1.3537743930282 1.3537743930282 1.3537743930282 1.8327051072189
1447	399690 32 1188086 1188086 14 14 1 1.9086973735526 1.9086973735526 1.9086973735526 3.6431256638065
1448	399722 32 1188086 1188086 14 14 1 2.8263094005376 2.8263094005376 2.8263094005376 7.988024827567
1449	399754 32 1188086 1188086 14 14 1 4.7575739450541 4.7575739450541 4.7575739450541 22.634509842657
1450	399786 32 1188086 1188086 14 14 1 1.9534361162456 1.9534361162456 1.9534361162456 3.8159126602526
1451	399818 31 1188086 1188086 14 14 1 2.816330493795 2.816330493795 2.816330493795 7.9317174502796
1452	399849 31 1188086 1188086 14 14 1 2.386165066855 2.386165066855 2.386165066855 5.6937837262793
1453	399880 32 1188086 1188086 14 14 1 3.8808070817645 3.8808070817645 3.8808070817645 15.060663605874
1454	399912 32 1188086 1188086 14 14 1 2.5498755852226 2.5498755852226 2.5498755852226 6.5018655001144
1455	399944 32 1188086 1188086 14 14 1 4.1415152213556 4.1415152213556 4.1415152213556 17.15214832872
1456	399976 32 1188086 1188086 14 14 1 2.5411951654823 2.5411951654823 2.5411951654823 6.4576728690709
1457	400008 32 1188086 1188086 14 14 1 3.7810563667935 3.7810563667935 3.7810563667935 14.29638724887
1458	400040 32 1188086 1188086 14 14 1 2.5059445196064 2.5059445196064 2.5059445196064 6.2797579353454
1459	400072 32 1188086 1188086 14 14 1 4.1764567458005 4.1764567458005 4.1764567458005 17.442790949542
1460	400104 32 1188086 1188086 14 14 1 1.4578195136739 1.4578195136739 1.4578195136739 2.1252377344484
1461	400136 32 1188086 1188086 14 14 1 2.6323014160054 2.6323014160054 2.6323014160054 6.9290107447038
1462	400168 32 1188086 1188086 14 14 1 1.4742708898382 1.4742708898382 1.4742708898382 2.1734746566244
1463	400200 32 1188086 1188086 14 14 1 2.6133669038948 2.6133669038948 2.6133669038948 6.8296865743729
1464	400232 34 1188086 1188086 14 14 1 -0.18322008092784 -0.18322008092784 -0.18322008092784 0.033569598055205
1465	400266 22 1188086 1188086 14 14 1 0.973 0.973 0.973 0.946729
1466	400288 34 1188086 1188086 14 14 1 -0.16661361102403 -0.16661361102403 -0.16661361102403 0.027760095378466
1467	400322 22 1188086 1188086 14 14 1 0.973 0.973 0.973 0.946729
1468	400344 33 1188086 1188086 14 14 1 0.10851372143305 0.10851372143305 0.10851372143305 0.011775227739251
1469	400377 32 1188086 1188086 14 14 1 1.1900481388922 1.1900481388922 1.1900481388922 1.4162145728809
1470	400409 34 1188086 1188086 14 14 1 -0.17631638798371 -0.17631638798371 -0.17631638798371 0.031087468671623
1471	400443 22 1188086 1188086 14 14 1 0.973 0.973 0.973 0.946729
1472	400465 34 1188086 1188086 14 14 1 -0.47792261805929 -0.47792261805929 -0.47792261805929 0.22841002885264
1473	400499 22 1188086 1188086 14 14 1 0.973 0.973 0.973 0.946729
1474	400521 33 1188086 1188086 14 14 1 0.37516212808744 0.37516212808744 0.37516212808744 0.1407466223511
1475	400554 31 1188086 1188086 14 14 1 1.289148383763 1.289148383763 1.289148383763 1.6619035553588
1476	400585 34 1188086 1188086 14 14 1 0.048782654792174 0.048782654792174 0.048782654792174 0.0023797474085724
1477	400619 32 1188086 1188086 14 14 1 1.1799206797254 1.1799206797254 1.1799206797254 1.3922128104437
1478	400651 32 1188086 1188086 14 14 1 -0.488080895674 -0.488080895674 -0.488080895674 0.23822296072194
1479	400683 22 1188086 1188086 14 14 1 0.973 0.973 0.973 0.946729
1480	400705 34 1188086 1188086 14 14 1 -0.36183309065463 -0.36183309065463 -0.36183309065463 0.13092318549268
1481	400739 22 1188086 1188086 14 14 1 0.973 0.973 0.973 0.946729
1482	400761 32 1188086 1188086 14 14 1 0.9838332066196 0.9838332066196 0.9838332066196 0.96792777844741
1483	400793 32 1188086 1188086 14 14 1 1.7409005143876 1.7409005143876 1.7409005143876 3.030734600995
1484	400825 32 1188086 1188086 14 14 1 1.1880727887969 1.1880727887969 1.1880727887969 1.4115169514795
1485	400857 32 1188086 1188086 14 14 1 1.8159756838424 1.8159756838424 1.8159756838424 3.2977676843069
1486	400889 32 1188086 1188086 14 14 1 1.0533743559849 1.0533743559849 1.0533743559849 1.1095975338465
1487	400921 33 1188086 1188086 14 14 1 0.76095348712988 0.76095348712988 0.76095348712988 0.57905020957513
1488	400954 32 1188086 1188086 14 14 1 4.2378740643617 4.2378740643617 4.2378740643617 17.959576585389
1489	400986 32 1188086 1188086 14 14 1 3.5712198608089 3.5712198608089 3.5712198608089 12.753611294236
1490	401018 32 1188086 1188086 14 14 1 5.0211911110673 5.0211911110673 5.0211911110673 25.212360173861
1491	401050 32 1188086 1188086 14 14 1 5.2007762831636 5.2007762831636 5.2007762831636 27.048073947517
1492	401082 32 1188086 1188086 14 14 1 5.0503723060247 5.0503723060247 5.0503723060247 25.506260429461
1493	401114 32 1188086 1188086 14 14 1 3.9278312548828 3.9278312548828 3.9278312548828 15.427858366834
1494	401146 31 1188086 1188086 14 14 1 4.927959359251 4.927959359251 4.927959359251 24.284783446429
1495	401177 33 1188086 1188086 14 14 1 0.91846087543392 0.91846087543392 0.91846087543392 0.84357037970284
1496	401210 32 1188086 1188086 14 14 1 1.9976527730003 1.9976527730003 1.9976527730003 3.9906166014758
1497	401242 32 1188086 1188086 14 14 1 1.3283761750674 1.3283761750674 1.3283761750674 1.7645832624867
1498	401274 32 1188086 1188086 14 14 1 1.4896506519523 1.4896506519523 1.4896506519523 2.2190590648618
1499	401306 31 1188086 1188086 14 14 1 1.907530841371 1.907530841371 1.907530841371 3.6386739107817
1500	401337 31 1188086 1188086 14 14 1 2.212256252626 2.212256252626 2.212256252626 4.8940777272826
1501	401368 32 1188086 1188086 14 14 1 1.1163676618404 1.1163676618404 1.1163676618404 1.2462767564031
1502	401400 33 1188086 1188086 14 14 1 0.83583557878026 0.83583557878026 0.83583557878026 0.69862111475493
1503	401433 32 1188086 1188086 14 14 1 1.2471721814816 1.2471721814816 1.2471721814816 1.5554384502616
1504	401465 32 1188086 1188086 14 14 1 1.0785576677234 1.0785576677234 1.0785576677234 1.163286642605
1505	401497 33 1188086 1188086 14 14 1 0.75349252454341 0.75349252454341 0.75349252454341 0.56775098454281
1506	401530 31 1188086 1188086 14 14 1 1.088140658491 1.088140658491 1.088140658491 1.1840500926612
1507	401561 32 1188086 1188086 14 14 1 1.1529469566691 1.1529469566691 1.1529469566691 1.3292866848926
1508	401593 33 1188086 1188086 14 14 1 0.76253995853476 0.76253995853476 0.76253995853476 0.5814671883622
1509	401626 32 1188086 1188086 14 14 1 1.0031426421367 1.0031426421367 1.0031426421367 1.0062951604729

