version 2
run WithoutChannelSwitching-0-20171231-20:48:27-5996
attr configname WithoutChannelSwitching
attr datetime 20171231-20:48:27
attr experiment WithoutChannelSwitching
attr inifile omnetpp.ini
attr iterationvars ""
attr iterationvarsf ""
attr measurement ""
attr network RSUExampleScenario
attr processid 5996
attr repetition 0
attr replication #0
attr resultdir results
attr runnumber 0
attr seedset 0
param **.debug false
param **.coreDebug false
param *.playgroundSizeX 20000m
param *.playgroundSizeY 20000m
param *.playgroundSizeZ 50m
param *.annotations.draw true
param *.manager.updateInterval 1s
param *.manager.host "\"localhost\""
param *.manager.port 9999
param *.manager.autoShutdown true
param *.manager.launchConfig "xmldoc(\"osm.launch.xml\")"
param *.rsu[0].mobility.x 2000
param *.rsu[0].mobility.y 2000
param *.rsu[0].mobility.z 3
param *.rsu[*].applType "\"TraCIDemoRSU11p\""
param *.rsu[*].appl.headerLength "80 bit"
param *.rsu[*].appl.sendBeacons true
param *.rsu[*].appl.dataOnSch false
param *.rsu[*].appl.beaconInterval 1s
param *.rsu[*].appl.beaconUserPriority 7
param *.rsu[*].appl.dataUserPriority 5
param *.connectionManager.sendDirect true
param *.connectionManager.maxInterfDist 2600m
param *.connectionManager.drawMaxIntfDist false
param *.**.nic.mac1609_4.useServiceChannel false
param *.**.nic.mac1609_4.txPower 20mW
param *.**.nic.mac1609_4.bitrate 6Mbps
param *.**.nic.phy80211p.sensitivity -89dBm
param *.**.nic.phy80211p.useThermalNoise true
param *.**.nic.phy80211p.thermalNoise -110dBm
param *.**.nic.phy80211p.decider "xmldoc(\"config.xml\")"
param *.**.nic.phy80211p.analogueModels "xmldoc(\"config.xml\")"
param *.**.nic.phy80211p.usePropagationDelay true
param *.**.nic.phy80211p.antenna "xmldoc(\"antenna.xml\", \"/root/Antenna[@id='monopole']\")"
param *.node[*].applType "\"TraCIDemo11p\""
param *.node[*].appl.headerLength "80 bit"
param *.node[*].appl.sendBeacons true
param *.node[*].appl.dataOnSch false
param *.node[*].appl.beaconInterval 1s
param *.node[*].veinsmobilityType.debug true
param *.node[*].veinsmobility.x 0
param *.node[*].veinsmobility.y 0
param *.node[*].veinsmobility.z 1.895
param *.node[*0].veinsmobility.accidentCount 1
param *.node[*0].veinsmobility.accidentStart 75s
param *.node[*0].veinsmobility.accidentDuration 50s

vector 0 RSUExampleScenario.node[0].veinsmobility posx ETV
vector 1 RSUExampleScenario.node[0].veinsmobility posy ETV
vector 2 RSUExampleScenario.node[1].veinsmobility posx ETV
vector 3 RSUExampleScenario.node[1].veinsmobility posy ETV
vector 4 RSUExampleScenario.node[2].veinsmobility posx ETV
vector 5 RSUExampleScenario.node[2].veinsmobility posy ETV
vector 6 RSUExampleScenario.node[3].veinsmobility posx ETV
vector 7 RSUExampleScenario.node[3].veinsmobility posy ETV
vector 8 RSUExampleScenario.node[4].veinsmobility posx ETV
vector 9 RSUExampleScenario.node[4].veinsmobility posy ETV
vector 10 RSUExampleScenario.node[5].veinsmobility posx ETV
vector 11 RSUExampleScenario.node[5].veinsmobility posy ETV
vector 12 RSUExampleScenario.node[6].veinsmobility posx ETV
vector 13 RSUExampleScenario.node[6].veinsmobility posy ETV
vector 14 RSUExampleScenario.node[7].veinsmobility posx ETV
vector 15 RSUExampleScenario.node[7].veinsmobility posy ETV
vector 16 RSUExampleScenario.node[8].veinsmobility posx ETV
vector 17 RSUExampleScenario.node[8].veinsmobility posy ETV
vector 18 RSUExampleScenario.node[9].veinsmobility posx ETV
vector 19 RSUExampleScenario.node[9].veinsmobility posy ETV
vector 20 RSUExampleScenario.node[10].veinsmobility posx ETV
vector 21 RSUExampleScenario.node[10].veinsmobility posy ETV
vector 22 RSUExampleScenario.node[11].veinsmobility posx ETV
vector 23 RSUExampleScenario.node[11].veinsmobility posy ETV
vector 24 RSUExampleScenario.node[12].veinsmobility posx ETV
vector 25 RSUExampleScenario.node[12].veinsmobility posy ETV
vector 26 RSUExampleScenario.node[13].veinsmobility posx ETV
vector 27 RSUExampleScenario.node[13].veinsmobility posy ETV
vector 28 RSUExampleScenario.node[14].veinsmobility posx ETV
vector 29 RSUExampleScenario.node[14].veinsmobility posy ETV
vector 30 RSUExampleScenario.node[15].veinsmobility posx ETV
vector 31 RSUExampleScenario.node[15].veinsmobility posy ETV
vector 32 RSUExampleScenario.node[16].veinsmobility posx ETV
vector 33 RSUExampleScenario.node[16].veinsmobility posy ETV
vector 34 RSUExampleScenario.node[17].veinsmobility posx ETV
vector 35 RSUExampleScenario.node[17].veinsmobility posy ETV
vector 36 RSUExampleScenario.node[18].veinsmobility posx ETV
vector 37 RSUExampleScenario.node[18].veinsmobility posy ETV
vector 38 RSUExampleScenario.node[19].veinsmobility posx ETV
vector 39 RSUExampleScenario.node[19].veinsmobility posy ETV
vector 40 RSUExampleScenario.node[20].veinsmobility posx ETV
vector 41 RSUExampleScenario.node[20].veinsmobility posy ETV
vector 42 RSUExampleScenario.node[21].veinsmobility posx ETV
vector 43 RSUExampleScenario.node[21].veinsmobility posy ETV
vector 44 RSUExampleScenario.node[22].veinsmobility posx ETV
vector 45 RSUExampleScenario.node[22].veinsmobility posy ETV
vector 46 RSUExampleScenario.node[23].veinsmobility posx ETV
vector 47 RSUExampleScenario.node[23].veinsmobility posy ETV
vector 48 RSUExampleScenario.node[24].veinsmobility posx ETV
vector 49 RSUExampleScenario.node[24].veinsmobility posy ETV
vector 50 RSUExampleScenario.node[25].veinsmobility posx ETV
vector 51 RSUExampleScenario.node[25].veinsmobility posy ETV
vector 52 RSUExampleScenario.node[26].veinsmobility posx ETV
vector 53 RSUExampleScenario.node[26].veinsmobility posy ETV
vector 54 RSUExampleScenario.node[27].veinsmobility posx ETV
vector 55 RSUExampleScenario.node[27].veinsmobility posy ETV
vector 56 RSUExampleScenario.node[28].veinsmobility posx ETV
vector 57 RSUExampleScenario.node[28].veinsmobility posy ETV
vector 58 RSUExampleScenario.node[29].veinsmobility posx ETV
vector 59 RSUExampleScenario.node[29].veinsmobility posy ETV
vector 60 RSUExampleScenario.node[30].veinsmobility posx ETV
vector 61 RSUExampleScenario.node[30].veinsmobility posy ETV
vector 62 RSUExampleScenario.node[31].veinsmobility posx ETV
vector 63 RSUExampleScenario.node[31].veinsmobility posy ETV
vector 64 RSUExampleScenario.node[32].veinsmobility posx ETV
vector 65 RSUExampleScenario.node[32].veinsmobility posy ETV
vector 66 RSUExampleScenario.node[33].veinsmobility posx ETV
vector 67 RSUExampleScenario.node[33].veinsmobility posy ETV
vector 68 RSUExampleScenario.node[34].veinsmobility posx ETV
vector 69 RSUExampleScenario.node[34].veinsmobility posy ETV
vector 70 RSUExampleScenario.node[35].veinsmobility posx ETV
vector 71 RSUExampleScenario.node[35].veinsmobility posy ETV
vector 72 RSUExampleScenario.node[36].veinsmobility posx ETV
vector 73 RSUExampleScenario.node[36].veinsmobility posy ETV
vector 74 RSUExampleScenario.node[37].veinsmobility posx ETV
vector 75 RSUExampleScenario.node[37].veinsmobility posy ETV
vector 76 RSUExampleScenario.node[38].veinsmobility posx ETV
vector 77 RSUExampleScenario.node[38].veinsmobility posy ETV
vector 78 RSUExampleScenario.node[39].veinsmobility posx ETV
vector 79 RSUExampleScenario.node[39].veinsmobility posy ETV
vector 80 RSUExampleScenario.node[40].veinsmobility posx ETV
vector 81 RSUExampleScenario.node[40].veinsmobility posy ETV
vector 82 RSUExampleScenario.node[41].veinsmobility posx ETV
vector 83 RSUExampleScenario.node[41].veinsmobility posy ETV
vector 84 RSUExampleScenario.node[42].veinsmobility posx ETV
vector 85 RSUExampleScenario.node[42].veinsmobility posy ETV
vector 86 RSUExampleScenario.node[43].veinsmobility posx ETV
vector 87 RSUExampleScenario.node[43].veinsmobility posy ETV
vector 88 RSUExampleScenario.node[0].veinsmobility speed ETV
vector 89 RSUExampleScenario.node[1].veinsmobility speed ETV
vector 90 RSUExampleScenario.node[2].veinsmobility speed ETV
vector 91 RSUExampleScenario.node[3].veinsmobility speed ETV
vector 92 RSUExampleScenario.node[4].veinsmobility speed ETV
vector 93 RSUExampleScenario.node[5].veinsmobility speed ETV
vector 94 RSUExampleScenario.node[6].veinsmobility speed ETV
vector 95 RSUExampleScenario.node[7].veinsmobility speed ETV
vector 96 RSUExampleScenario.node[8].veinsmobility speed ETV
vector 97 RSUExampleScenario.node[44].veinsmobility posx ETV
vector 98 RSUExampleScenario.node[44].veinsmobility posy ETV
vector 99 RSUExampleScenario.node[45].veinsmobility posx ETV
vector 100 RSUExampleScenario.node[45].veinsmobility posy ETV
vector 101 RSUExampleScenario.node[46].veinsmobility posx ETV
vector 102 RSUExampleScenario.node[46].veinsmobility posy ETV
vector 103 RSUExampleScenario.node[47].veinsmobility posx ETV
vector 104 RSUExampleScenario.node[47].veinsmobility posy ETV
vector 105 RSUExampleScenario.node[48].veinsmobility posx ETV
vector 106 RSUExampleScenario.node[48].veinsmobility posy ETV
vector 107 RSUExampleScenario.node[49].veinsmobility posx ETV
vector 108 RSUExampleScenario.node[49].veinsmobility posy ETV
vector 109 RSUExampleScenario.node[50].veinsmobility posx ETV
vector 110 RSUExampleScenario.node[50].veinsmobility posy ETV
vector 111 RSUExampleScenario.node[51].veinsmobility posx ETV
vector 112 RSUExampleScenario.node[51].veinsmobility posy ETV
vector 113 RSUExampleScenario.node[52].veinsmobility posx ETV
vector 114 RSUExampleScenario.node[52].veinsmobility posy ETV
vector 115 RSUExampleScenario.node[53].veinsmobility posx ETV
vector 116 RSUExampleScenario.node[53].veinsmobility posy ETV
vector 117 RSUExampleScenario.node[54].veinsmobility posx ETV
vector 118 RSUExampleScenario.node[54].veinsmobility posy ETV
vector 119 RSUExampleScenario.node[55].veinsmobility posx ETV
vector 120 RSUExampleScenario.node[55].veinsmobility posy ETV
vector 121 RSUExampleScenario.node[56].veinsmobility posx ETV
vector 122 RSUExampleScenario.node[56].veinsmobility posy ETV
vector 123 RSUExampleScenario.node[57].veinsmobility posx ETV
vector 124 RSUExampleScenario.node[57].veinsmobility posy ETV
vector 125 RSUExampleScenario.node[58].veinsmobility posx ETV
vector 126 RSUExampleScenario.node[58].veinsmobility posy ETV
vector 127 RSUExampleScenario.node[59].veinsmobility posx ETV
vector 128 RSUExampleScenario.node[59].veinsmobility posy ETV
vector 129 RSUExampleScenario.node[60].veinsmobility posx ETV
vector 130 RSUExampleScenario.node[60].veinsmobility posy ETV
vector 131 RSUExampleScenario.node[61].veinsmobility posx ETV
vector 132 RSUExampleScenario.node[61].veinsmobility posy ETV
vector 133 RSUExampleScenario.node[62].veinsmobility posx ETV
vector 134 RSUExampleScenario.node[62].veinsmobility posy ETV
vector 135 RSUExampleScenario.node[0].veinsmobility acceleration ETV
vector 136 RSUExampleScenario.node[0].veinsmobility co2emission ETV
vector 137 RSUExampleScenario.node[1].veinsmobility acceleration ETV
vector 138 RSUExampleScenario.node[1].veinsmobility co2emission ETV
vector 139 RSUExampleScenario.node[2].veinsmobility acceleration ETV
vector 140 RSUExampleScenario.node[2].veinsmobility co2emission ETV
vector 141 RSUExampleScenario.node[3].veinsmobility acceleration ETV
vector 142 RSUExampleScenario.node[3].veinsmobility co2emission ETV
vector 143 RSUExampleScenario.node[4].veinsmobility acceleration ETV
vector 144 RSUExampleScenario.node[4].veinsmobility co2emission ETV
vector 145 RSUExampleScenario.node[5].veinsmobility acceleration ETV
vector 146 RSUExampleScenario.node[5].veinsmobility co2emission ETV
vector 147 RSUExampleScenario.node[6].veinsmobility acceleration ETV
vector 148 RSUExampleScenario.node[6].veinsmobility co2emission ETV
vector 149 RSUExampleScenario.node[7].veinsmobility acceleration ETV
vector 150 RSUExampleScenario.node[7].veinsmobility co2emission ETV
vector 151 RSUExampleScenario.node[8].veinsmobility acceleration ETV
vector 152 RSUExampleScenario.node[8].veinsmobility co2emission ETV
vector 153 RSUExampleScenario.node[9].veinsmobility speed ETV
vector 154 RSUExampleScenario.node[10].veinsmobility speed ETV
vector 155 RSUExampleScenario.node[11].veinsmobility speed ETV
vector 156 RSUExampleScenario.node[12].veinsmobility speed ETV
vector 157 RSUExampleScenario.node[13].veinsmobility speed ETV
vector 158 RSUExampleScenario.node[14].veinsmobility speed ETV
vector 159 RSUExampleScenario.node[15].veinsmobility speed ETV
vector 160 RSUExampleScenario.node[16].veinsmobility speed ETV
vector 161 RSUExampleScenario.node[17].veinsmobility speed ETV
vector 162 RSUExampleScenario.node[18].veinsmobility speed ETV
vector 163 RSUExampleScenario.node[19].veinsmobility speed ETV
vector 164 RSUExampleScenario.node[20].veinsmobility speed ETV
vector 165 RSUExampleScenario.node[21].veinsmobility speed ETV
vector 166 RSUExampleScenario.node[22].veinsmobility speed ETV
vector 167 RSUExampleScenario.node[23].veinsmobility speed ETV
vector 168 RSUExampleScenario.node[24].veinsmobility speed ETV
vector 169 RSUExampleScenario.node[25].veinsmobility speed ETV
vector 170 RSUExampleScenario.node[26].veinsmobility speed ETV
vector 171 RSUExampleScenario.node[27].veinsmobility speed ETV
vector 172 RSUExampleScenario.node[28].veinsmobility speed ETV
vector 173 RSUExampleScenario.node[29].veinsmobility speed ETV
vector 174 RSUExampleScenario.node[30].veinsmobility speed ETV
vector 175 RSUExampleScenario.node[31].veinsmobility speed ETV
vector 176 RSUExampleScenario.node[32].veinsmobility speed ETV
vector 177 RSUExampleScenario.node[33].veinsmobility speed ETV
vector 178 RSUExampleScenario.node[34].veinsmobility speed ETV
vector 179 RSUExampleScenario.node[35].veinsmobility speed ETV
vector 180 RSUExampleScenario.node[36].veinsmobility speed ETV
vector 181 RSUExampleScenario.node[37].veinsmobility speed ETV
vector 182 RSUExampleScenario.node[38].veinsmobility speed ETV
vector 183 RSUExampleScenario.node[39].veinsmobility speed ETV
vector 184 RSUExampleScenario.node[40].veinsmobility speed ETV
vector 185 RSUExampleScenario.node[41].veinsmobility speed ETV
vector 186 RSUExampleScenario.node[42].veinsmobility speed ETV
vector 187 RSUExampleScenario.node[43].veinsmobility speed ETV
vector 188 RSUExampleScenario.node[63].veinsmobility posx ETV
vector 189 RSUExampleScenario.node[63].veinsmobility posy ETV
vector 190 RSUExampleScenario.node[64].veinsmobility posx ETV
vector 191 RSUExampleScenario.node[64].veinsmobility posy ETV
vector 192 RSUExampleScenario.node[65].veinsmobility posx ETV
vector 193 RSUExampleScenario.node[65].veinsmobility posy ETV
vector 194 RSUExampleScenario.node[66].veinsmobility posx ETV
vector 195 RSUExampleScenario.node[66].veinsmobility posy ETV
vector 196 RSUExampleScenario.node[67].veinsmobility posx ETV
vector 197 RSUExampleScenario.node[67].veinsmobility posy ETV
vector 198 RSUExampleScenario.node[68].veinsmobility posx ETV
vector 199 RSUExampleScenario.node[68].veinsmobility posy ETV
vector 200 RSUExampleScenario.node[69].veinsmobility posx ETV
vector 201 RSUExampleScenario.node[69].veinsmobility posy ETV
vector 202 RSUExampleScenario.node[70].veinsmobility posx ETV
vector 203 RSUExampleScenario.node[70].veinsmobility posy ETV
vector 204 RSUExampleScenario.node[71].veinsmobility posx ETV
vector 205 RSUExampleScenario.node[71].veinsmobility posy ETV
vector 206 RSUExampleScenario.node[72].veinsmobility posx ETV
vector 207 RSUExampleScenario.node[72].veinsmobility posy ETV
vector 208 RSUExampleScenario.node[73].veinsmobility posx ETV
vector 209 RSUExampleScenario.node[73].veinsmobility posy ETV
vector 210 RSUExampleScenario.node[74].veinsmobility posx ETV
vector 211 RSUExampleScenario.node[74].veinsmobility posy ETV
vector 212 RSUExampleScenario.node[75].veinsmobility posx ETV
vector 213 RSUExampleScenario.node[75].veinsmobility posy ETV
vector 214 RSUExampleScenario.node[76].veinsmobility posx ETV
vector 215 RSUExampleScenario.node[76].veinsmobility posy ETV
vector 216 RSUExampleScenario.node[77].veinsmobility posx ETV
vector 217 RSUExampleScenario.node[77].veinsmobility posy ETV
vector 218 RSUExampleScenario.node[78].veinsmobility posx ETV
vector 219 RSUExampleScenario.node[78].veinsmobility posy ETV
vector 220 RSUExampleScenario.node[79].veinsmobility posx ETV
vector 221 RSUExampleScenario.node[79].veinsmobility posy ETV
vector 222 RSUExampleScenario.node[80].veinsmobility posx ETV
vector 223 RSUExampleScenario.node[80].veinsmobility posy ETV
vector 224 RSUExampleScenario.node[81].veinsmobility posx ETV
vector 225 RSUExampleScenario.node[81].veinsmobility posy ETV
vector 226 RSUExampleScenario.node[82].veinsmobility posx ETV
vector 227 RSUExampleScenario.node[82].veinsmobility posy ETV
vector 228 RSUExampleScenario.node[83].veinsmobility posx ETV
vector 229 RSUExampleScenario.node[83].veinsmobility posy ETV
vector 230 RSUExampleScenario.node[84].veinsmobility posx ETV
vector 231 RSUExampleScenario.node[84].veinsmobility posy ETV
vector 232 RSUExampleScenario.node[85].veinsmobility posx ETV
vector 233 RSUExampleScenario.node[85].veinsmobility posy ETV
vector 234 RSUExampleScenario.node[9].veinsmobility acceleration ETV
vector 235 RSUExampleScenario.node[9].veinsmobility co2emission ETV
vector 236 RSUExampleScenario.node[10].veinsmobility acceleration ETV
vector 237 RSUExampleScenario.node[10].veinsmobility co2emission ETV
vector 238 RSUExampleScenario.node[11].veinsmobility acceleration ETV
vector 239 RSUExampleScenario.node[11].veinsmobility co2emission ETV
vector 240 RSUExampleScenario.node[12].veinsmobility acceleration ETV
vector 241 RSUExampleScenario.node[12].veinsmobility co2emission ETV
vector 242 RSUExampleScenario.node[13].veinsmobility acceleration ETV
vector 243 RSUExampleScenario.node[13].veinsmobility co2emission ETV
vector 244 RSUExampleScenario.node[14].veinsmobility acceleration ETV
vector 245 RSUExampleScenario.node[14].veinsmobility co2emission ETV
vector 246 RSUExampleScenario.node[15].veinsmobility acceleration ETV
vector 247 RSUExampleScenario.node[15].veinsmobility co2emission ETV
vector 248 RSUExampleScenario.node[16].veinsmobility acceleration ETV
vector 249 RSUExampleScenario.node[16].veinsmobility co2emission ETV
vector 250 RSUExampleScenario.node[17].veinsmobility acceleration ETV
vector 251 RSUExampleScenario.node[17].veinsmobility co2emission ETV
vector 252 RSUExampleScenario.node[18].veinsmobility acceleration ETV
vector 253 RSUExampleScenario.node[18].veinsmobility co2emission ETV
vector 254 RSUExampleScenario.node[19].veinsmobility acceleration ETV
vector 255 RSUExampleScenario.node[19].veinsmobility co2emission ETV
vector 256 RSUExampleScenario.node[20].veinsmobility acceleration ETV
vector 257 RSUExampleScenario.node[20].veinsmobility co2emission ETV
vector 258 RSUExampleScenario.node[21].veinsmobility acceleration ETV
vector 259 RSUExampleScenario.node[21].veinsmobility co2emission ETV
vector 260 RSUExampleScenario.node[22].veinsmobility acceleration ETV
vector 261 RSUExampleScenario.node[22].veinsmobility co2emission ETV
vector 262 RSUExampleScenario.node[23].veinsmobility acceleration ETV
vector 263 RSUExampleScenario.node[23].veinsmobility co2emission ETV
vector 264 RSUExampleScenario.node[24].veinsmobility acceleration ETV
vector 265 RSUExampleScenario.node[24].veinsmobility co2emission ETV
vector 266 RSUExampleScenario.node[25].veinsmobility acceleration ETV
vector 267 RSUExampleScenario.node[25].veinsmobility co2emission ETV
vector 268 RSUExampleScenario.node[26].veinsmobility acceleration ETV
vector 269 RSUExampleScenario.node[26].veinsmobility co2emission ETV
vector 270 RSUExampleScenario.node[27].veinsmobility acceleration ETV
vector 271 RSUExampleScenario.node[27].veinsmobility co2emission ETV
vector 272 RSUExampleScenario.node[28].veinsmobility acceleration ETV
vector 273 RSUExampleScenario.node[28].veinsmobility co2emission ETV
vector 274 RSUExampleScenario.node[29].veinsmobility acceleration ETV
vector 275 RSUExampleScenario.node[29].veinsmobility co2emission ETV
vector 276 RSUExampleScenario.node[30].veinsmobility acceleration ETV
vector 277 RSUExampleScenario.node[30].veinsmobility co2emission ETV
vector 278 RSUExampleScenario.node[31].veinsmobility acceleration ETV
vector 279 RSUExampleScenario.node[31].veinsmobility co2emission ETV
vector 280 RSUExampleScenario.node[32].veinsmobility acceleration ETV
vector 281 RSUExampleScenario.node[32].veinsmobility co2emission ETV
vector 282 RSUExampleScenario.node[33].veinsmobility acceleration ETV
vector 283 RSUExampleScenario.node[33].veinsmobility co2emission ETV
vector 284 RSUExampleScenario.node[34].veinsmobility acceleration ETV
vector 285 RSUExampleScenario.node[34].veinsmobility co2emission ETV
vector 286 RSUExampleScenario.node[35].veinsmobility acceleration ETV
vector 287 RSUExampleScenario.node[35].veinsmobility co2emission ETV
vector 288 RSUExampleScenario.node[36].veinsmobility acceleration ETV
vector 289 RSUExampleScenario.node[36].veinsmobility co2emission ETV
vector 290 RSUExampleScenario.node[37].veinsmobility acceleration ETV
vector 291 RSUExampleScenario.node[37].veinsmobility co2emission ETV
vector 292 RSUExampleScenario.node[38].veinsmobility acceleration ETV
vector 293 RSUExampleScenario.node[38].veinsmobility co2emission ETV
vector 294 RSUExampleScenario.node[39].veinsmobility acceleration ETV
vector 295 RSUExampleScenario.node[39].veinsmobility co2emission ETV
vector 296 RSUExampleScenario.node[40].veinsmobility acceleration ETV
vector 297 RSUExampleScenario.node[40].veinsmobility co2emission ETV
vector 298 RSUExampleScenario.node[41].veinsmobility acceleration ETV
vector 299 RSUExampleScenario.node[41].veinsmobility co2emission ETV
vector 300 RSUExampleScenario.node[42].veinsmobility acceleration ETV
vector 301 RSUExampleScenario.node[42].veinsmobility co2emission ETV
vector 302 RSUExampleScenario.node[43].veinsmobility acceleration ETV
vector 303 RSUExampleScenario.node[43].veinsmobility co2emission ETV
vector 304 RSUExampleScenario.node[44].veinsmobility speed ETV
vector 305 RSUExampleScenario.node[45].veinsmobility speed ETV
vector 306 RSUExampleScenario.node[46].veinsmobility speed ETV
vector 307 RSUExampleScenario.node[47].veinsmobility speed ETV
vector 308 RSUExampleScenario.node[48].veinsmobility speed ETV
vector 309 RSUExampleScenario.node[49].veinsmobility speed ETV
vector 310 RSUExampleScenario.node[50].veinsmobility speed ETV
vector 311 RSUExampleScenario.node[51].veinsmobility speed ETV
vector 312 RSUExampleScenario.node[52].veinsmobility speed ETV
vector 313 RSUExampleScenario.node[53].veinsmobility speed ETV
vector 314 RSUExampleScenario.node[54].veinsmobility speed ETV
vector 315 RSUExampleScenario.node[55].veinsmobility speed ETV
vector 316 RSUExampleScenario.node[56].veinsmobility speed ETV
vector 317 RSUExampleScenario.node[57].veinsmobility speed ETV
vector 318 RSUExampleScenario.node[58].veinsmobility speed ETV
vector 319 RSUExampleScenario.node[59].veinsmobility speed ETV
vector 320 RSUExampleScenario.node[60].veinsmobility speed ETV
vector 321 RSUExampleScenario.node[61].veinsmobility speed ETV
vector 322 RSUExampleScenario.node[62].veinsmobility speed ETV
vector 323 RSUExampleScenario.node[86].veinsmobility posx ETV
vector 324 RSUExampleScenario.node[86].veinsmobility posy ETV
vector 325 RSUExampleScenario.node[87].veinsmobility posx ETV
vector 326 RSUExampleScenario.node[87].veinsmobility posy ETV
vector 327 RSUExampleScenario.node[88].veinsmobility posx ETV
vector 328 RSUExampleScenario.node[88].veinsmobility posy ETV
vector 329 RSUExampleScenario.node[89].veinsmobility posx ETV
vector 330 RSUExampleScenario.node[89].veinsmobility posy ETV
vector 331 RSUExampleScenario.node[90].veinsmobility posx ETV
vector 332 RSUExampleScenario.node[90].veinsmobility posy ETV
vector 333 RSUExampleScenario.node[91].veinsmobility posx ETV
vector 334 RSUExampleScenario.node[91].veinsmobility posy ETV
vector 335 RSUExampleScenario.node[92].veinsmobility posx ETV
vector 336 RSUExampleScenario.node[92].veinsmobility posy ETV
vector 337 RSUExampleScenario.node[93].veinsmobility posx ETV
vector 338 RSUExampleScenario.node[93].veinsmobility posy ETV
vector 339 RSUExampleScenario.node[94].veinsmobility posx ETV
vector 340 RSUExampleScenario.node[94].veinsmobility posy ETV
vector 341 RSUExampleScenario.node[95].veinsmobility posx ETV
vector 342 RSUExampleScenario.node[95].veinsmobility posy ETV
vector 343 RSUExampleScenario.node[96].veinsmobility posx ETV
vector 344 RSUExampleScenario.node[96].veinsmobility posy ETV
vector 345 RSUExampleScenario.node[97].veinsmobility posx ETV
vector 346 RSUExampleScenario.node[97].veinsmobility posy ETV
vector 347 RSUExampleScenario.node[98].veinsmobility posx ETV
vector 348 RSUExampleScenario.node[98].veinsmobility posy ETV
vector 349 RSUExampleScenario.node[99].veinsmobility posx ETV
vector 350 RSUExampleScenario.node[99].veinsmobility posy ETV
vector 351 RSUExampleScenario.node[100].veinsmobility posx ETV
vector 352 RSUExampleScenario.node[100].veinsmobility posy ETV
vector 353 RSUExampleScenario.node[101].veinsmobility posx ETV
vector 354 RSUExampleScenario.node[101].veinsmobility posy ETV
vector 355 RSUExampleScenario.node[102].veinsmobility posx ETV
vector 356 RSUExampleScenario.node[102].veinsmobility posy ETV
vector 357 RSUExampleScenario.node[103].veinsmobility posx ETV
vector 358 RSUExampleScenario.node[103].veinsmobility posy ETV
vector 359 RSUExampleScenario.node[104].veinsmobility posx ETV
vector 360 RSUExampleScenario.node[104].veinsmobility posy ETV
vector 361 RSUExampleScenario.node[105].veinsmobility posx ETV
vector 362 RSUExampleScenario.node[105].veinsmobility posy ETV
vector 363 RSUExampleScenario.node[106].veinsmobility posx ETV
vector 364 RSUExampleScenario.node[106].veinsmobility posy ETV
vector 365 RSUExampleScenario.node[107].veinsmobility posx ETV
vector 366 RSUExampleScenario.node[107].veinsmobility posy ETV
vector 367 RSUExampleScenario.node[108].veinsmobility posx ETV
vector 368 RSUExampleScenario.node[108].veinsmobility posy ETV
vector 369 RSUExampleScenario.node[109].veinsmobility posx ETV
vector 370 RSUExampleScenario.node[109].veinsmobility posy ETV
vector 371 RSUExampleScenario.node[110].veinsmobility posx ETV
vector 372 RSUExampleScenario.node[110].veinsmobility posy ETV
vector 373 RSUExampleScenario.node[111].veinsmobility posx ETV
vector 374 RSUExampleScenario.node[111].veinsmobility posy ETV
vector 375 RSUExampleScenario.node[112].veinsmobility posx ETV
vector 376 RSUExampleScenario.node[112].veinsmobility posy ETV
vector 377 RSUExampleScenario.node[113].veinsmobility posx ETV
vector 378 RSUExampleScenario.node[113].veinsmobility posy ETV
vector 379 RSUExampleScenario.node[44].veinsmobility acceleration ETV
vector 380 RSUExampleScenario.node[44].veinsmobility co2emission ETV
vector 381 RSUExampleScenario.node[45].veinsmobility acceleration ETV
vector 382 RSUExampleScenario.node[45].veinsmobility co2emission ETV
vector 383 RSUExampleScenario.node[46].veinsmobility acceleration ETV
vector 384 RSUExampleScenario.node[46].veinsmobility co2emission ETV
vector 385 RSUExampleScenario.node[47].veinsmobility acceleration ETV
vector 386 RSUExampleScenario.node[47].veinsmobility co2emission ETV
vector 387 RSUExampleScenario.node[48].veinsmobility acceleration ETV
vector 388 RSUExampleScenario.node[48].veinsmobility co2emission ETV
vector 389 RSUExampleScenario.node[49].veinsmobility acceleration ETV
vector 390 RSUExampleScenario.node[49].veinsmobility co2emission ETV
vector 391 RSUExampleScenario.node[50].veinsmobility acceleration ETV
vector 392 RSUExampleScenario.node[50].veinsmobility co2emission ETV
vector 393 RSUExampleScenario.node[51].veinsmobility acceleration ETV
vector 394 RSUExampleScenario.node[51].veinsmobility co2emission ETV
vector 395 RSUExampleScenario.node[52].veinsmobility acceleration ETV
vector 396 RSUExampleScenario.node[52].veinsmobility co2emission ETV
vector 397 RSUExampleScenario.node[53].veinsmobility acceleration ETV
vector 398 RSUExampleScenario.node[53].veinsmobility co2emission ETV
vector 399 RSUExampleScenario.node[54].veinsmobility acceleration ETV
vector 400 RSUExampleScenario.node[54].veinsmobility co2emission ETV
vector 401 RSUExampleScenario.node[55].veinsmobility acceleration ETV
vector 402 RSUExampleScenario.node[55].veinsmobility co2emission ETV
vector 403 RSUExampleScenario.node[56].veinsmobility acceleration ETV
vector 404 RSUExampleScenario.node[56].veinsmobility co2emission ETV
vector 405 RSUExampleScenario.node[57].veinsmobility acceleration ETV
vector 406 RSUExampleScenario.node[57].veinsmobility co2emission ETV
vector 407 RSUExampleScenario.node[58].veinsmobility acceleration ETV
vector 408 RSUExampleScenario.node[58].veinsmobility co2emission ETV
vector 409 RSUExampleScenario.node[59].veinsmobility acceleration ETV
vector 410 RSUExampleScenario.node[59].veinsmobility co2emission ETV
vector 411 RSUExampleScenario.node[60].veinsmobility acceleration ETV
vector 412 RSUExampleScenario.node[60].veinsmobility co2emission ETV
vector 413 RSUExampleScenario.node[61].veinsmobility acceleration ETV
vector 414 RSUExampleScenario.node[61].veinsmobility co2emission ETV
vector 415 RSUExampleScenario.node[62].veinsmobility acceleration ETV
vector 416 RSUExampleScenario.node[62].veinsmobility co2emission ETV
vector 417 RSUExampleScenario.node[63].veinsmobility speed ETV
vector 418 RSUExampleScenario.node[64].veinsmobility speed ETV
vector 419 RSUExampleScenario.node[65].veinsmobility speed ETV
vector 420 RSUExampleScenario.node[66].veinsmobility speed ETV
vector 421 RSUExampleScenario.node[67].veinsmobility speed ETV
vector 422 RSUExampleScenario.node[68].veinsmobility speed ETV
vector 423 RSUExampleScenario.node[69].veinsmobility speed ETV
vector 424 RSUExampleScenario.node[70].veinsmobility speed ETV
vector 425 RSUExampleScenario.node[71].veinsmobility speed ETV
vector 426 RSUExampleScenario.node[72].veinsmobility speed ETV
vector 427 RSUExampleScenario.node[73].veinsmobility speed ETV
vector 428 RSUExampleScenario.node[74].veinsmobility speed ETV
vector 429 RSUExampleScenario.node[75].veinsmobility speed ETV
vector 430 RSUExampleScenario.node[76].veinsmobility speed ETV
vector 431 RSUExampleScenario.node[77].veinsmobility speed ETV
vector 432 RSUExampleScenario.node[78].veinsmobility speed ETV
vector 433 RSUExampleScenario.node[79].veinsmobility speed ETV
vector 434 RSUExampleScenario.node[80].veinsmobility speed ETV
vector 435 RSUExampleScenario.node[81].veinsmobility speed ETV
vector 436 RSUExampleScenario.node[82].veinsmobility speed ETV
vector 437 RSUExampleScenario.node[83].veinsmobility speed ETV
vector 438 RSUExampleScenario.node[84].veinsmobility speed ETV
vector 439 RSUExampleScenario.node[85].veinsmobility speed ETV
376	39374	5	6536.42
375	39374	5	2887.54
vector 440 RSUExampleScenario.node[114].veinsmobility posx ETV
vector 441 RSUExampleScenario.node[114].veinsmobility posy ETV
vector 442 RSUExampleScenario.node[115].veinsmobility posx ETV
vector 443 RSUExampleScenario.node[115].veinsmobility posy ETV
vector 444 RSUExampleScenario.node[116].veinsmobility posx ETV
vector 445 RSUExampleScenario.node[116].veinsmobility posy ETV
vector 446 RSUExampleScenario.node[117].veinsmobility posx ETV
vector 447 RSUExampleScenario.node[117].veinsmobility posy ETV
vector 448 RSUExampleScenario.node[118].veinsmobility posx ETV
vector 449 RSUExampleScenario.node[118].veinsmobility posy ETV
vector 450 RSUExampleScenario.node[119].veinsmobility posx ETV
vector 451 RSUExampleScenario.node[119].veinsmobility posy ETV
vector 452 RSUExampleScenario.node[120].veinsmobility posx ETV
vector 453 RSUExampleScenario.node[120].veinsmobility posy ETV
vector 454 RSUExampleScenario.node[121].veinsmobility posx ETV
vector 455 RSUExampleScenario.node[121].veinsmobility posy ETV
vector 456 RSUExampleScenario.node[122].veinsmobility posx ETV
vector 457 RSUExampleScenario.node[122].veinsmobility posy ETV
vector 458 RSUExampleScenario.node[123].veinsmobility posx ETV
vector 459 RSUExampleScenario.node[123].veinsmobility posy ETV
vector 460 RSUExampleScenario.node[124].veinsmobility posx ETV
vector 461 RSUExampleScenario.node[124].veinsmobility posy ETV
vector 462 RSUExampleScenario.node[125].veinsmobility posx ETV
vector 463 RSUExampleScenario.node[125].veinsmobility posy ETV
vector 464 RSUExampleScenario.node[126].veinsmobility posx ETV
vector 465 RSUExampleScenario.node[126].veinsmobility posy ETV
vector 466 RSUExampleScenario.node[127].veinsmobility posx ETV
vector 467 RSUExampleScenario.node[127].veinsmobility posy ETV
vector 468 RSUExampleScenario.node[128].veinsmobility posx ETV
vector 469 RSUExampleScenario.node[128].veinsmobility posy ETV
vector 470 RSUExampleScenario.node[129].veinsmobility posx ETV
vector 471 RSUExampleScenario.node[129].veinsmobility posy ETV
vector 472 RSUExampleScenario.node[130].veinsmobility posx ETV
vector 473 RSUExampleScenario.node[130].veinsmobility posy ETV
vector 474 RSUExampleScenario.node[131].veinsmobility posx ETV
vector 475 RSUExampleScenario.node[131].veinsmobility posy ETV
vector 476 RSUExampleScenario.node[132].veinsmobility posx ETV
vector 477 RSUExampleScenario.node[132].veinsmobility posy ETV
vector 478 RSUExampleScenario.node[133].veinsmobility posx ETV
vector 479 RSUExampleScenario.node[133].veinsmobility posy ETV
vector 480 RSUExampleScenario.node[134].veinsmobility posx ETV
vector 481 RSUExampleScenario.node[134].veinsmobility posy ETV
vector 482 RSUExampleScenario.node[135].veinsmobility posx ETV
vector 483 RSUExampleScenario.node[135].veinsmobility posy ETV
vector 484 RSUExampleScenario.node[63].veinsmobility acceleration ETV
vector 485 RSUExampleScenario.node[63].veinsmobility co2emission ETV
vector 486 RSUExampleScenario.node[64].veinsmobility acceleration ETV
vector 487 RSUExampleScenario.node[64].veinsmobility co2emission ETV
vector 488 RSUExampleScenario.node[65].veinsmobility acceleration ETV
vector 489 RSUExampleScenario.node[65].veinsmobility co2emission ETV
vector 490 RSUExampleScenario.node[66].veinsmobility acceleration ETV
vector 491 RSUExampleScenario.node[66].veinsmobility co2emission ETV
vector 492 RSUExampleScenario.node[67].veinsmobility acceleration ETV
vector 493 RSUExampleScenario.node[67].veinsmobility co2emission ETV
vector 494 RSUExampleScenario.node[68].veinsmobility acceleration ETV
vector 495 RSUExampleScenario.node[68].veinsmobility co2emission ETV
vector 496 RSUExampleScenario.node[69].veinsmobility acceleration ETV
vector 497 RSUExampleScenario.node[69].veinsmobility co2emission ETV
vector 498 RSUExampleScenario.node[70].veinsmobility acceleration ETV
vector 499 RSUExampleScenario.node[70].veinsmobility co2emission ETV
vector 500 RSUExampleScenario.node[71].veinsmobility acceleration ETV
vector 501 RSUExampleScenario.node[71].veinsmobility co2emission ETV
vector 502 RSUExampleScenario.node[72].veinsmobility acceleration ETV
vector 503 RSUExampleScenario.node[72].veinsmobility co2emission ETV
vector 504 RSUExampleScenario.node[73].veinsmobility acceleration ETV
vector 505 RSUExampleScenario.node[73].veinsmobility co2emission ETV
vector 506 RSUExampleScenario.node[74].veinsmobility acceleration ETV
vector 507 RSUExampleScenario.node[74].veinsmobility co2emission ETV
vector 508 RSUExampleScenario.node[75].veinsmobility acceleration ETV
vector 509 RSUExampleScenario.node[75].veinsmobility co2emission ETV
vector 510 RSUExampleScenario.node[76].veinsmobility acceleration ETV
vector 511 RSUExampleScenario.node[76].veinsmobility co2emission ETV
vector 512 RSUExampleScenario.node[77].veinsmobility acceleration ETV
vector 513 RSUExampleScenario.node[77].veinsmobility co2emission ETV
vector 514 RSUExampleScenario.node[78].veinsmobility acceleration ETV
vector 515 RSUExampleScenario.node[78].veinsmobility co2emission ETV
vector 516 RSUExampleScenario.node[79].veinsmobility acceleration ETV
vector 517 RSUExampleScenario.node[79].veinsmobility co2emission ETV
vector 518 RSUExampleScenario.node[80].veinsmobility acceleration ETV
vector 519 RSUExampleScenario.node[80].veinsmobility co2emission ETV
vector 520 RSUExampleScenario.node[81].veinsmobility acceleration ETV
vector 521 RSUExampleScenario.node[81].veinsmobility co2emission ETV
vector 522 RSUExampleScenario.node[82].veinsmobility acceleration ETV
vector 523 RSUExampleScenario.node[82].veinsmobility co2emission ETV
vector 524 RSUExampleScenario.node[83].veinsmobility acceleration ETV
vector 525 RSUExampleScenario.node[83].veinsmobility co2emission ETV
vector 526 RSUExampleScenario.node[84].veinsmobility acceleration ETV
vector 527 RSUExampleScenario.node[84].veinsmobility co2emission ETV
vector 528 RSUExampleScenario.node[85].veinsmobility acceleration ETV
vector 529 RSUExampleScenario.node[85].veinsmobility co2emission ETV
vector 530 RSUExampleScenario.node[86].veinsmobility speed ETV
vector 531 RSUExampleScenario.node[87].veinsmobility speed ETV
vector 532 RSUExampleScenario.node[88].veinsmobility speed ETV
vector 533 RSUExampleScenario.node[89].veinsmobility speed ETV
vector 534 RSUExampleScenario.node[90].veinsmobility speed ETV
vector 535 RSUExampleScenario.node[91].veinsmobility speed ETV
vector 536 RSUExampleScenario.node[92].veinsmobility speed ETV
vector 537 RSUExampleScenario.node[93].veinsmobility speed ETV
vector 538 RSUExampleScenario.node[94].veinsmobility speed ETV
vector 539 RSUExampleScenario.node[95].veinsmobility speed ETV
vector 540 RSUExampleScenario.node[96].veinsmobility speed ETV
vector 541 RSUExampleScenario.node[97].veinsmobility speed ETV
vector 542 RSUExampleScenario.node[98].veinsmobility speed ETV
vector 543 RSUExampleScenario.node[99].veinsmobility speed ETV
vector 544 RSUExampleScenario.node[100].veinsmobility speed ETV
vector 545 RSUExampleScenario.node[101].veinsmobility speed ETV
vector 546 RSUExampleScenario.node[102].veinsmobility speed ETV
vector 547 RSUExampleScenario.node[103].veinsmobility speed ETV
vector 548 RSUExampleScenario.node[104].veinsmobility speed ETV
vector 549 RSUExampleScenario.node[105].veinsmobility speed ETV
vector 550 RSUExampleScenario.node[106].veinsmobility speed ETV
vector 551 RSUExampleScenario.node[107].veinsmobility speed ETV
vector 552 RSUExampleScenario.node[108].veinsmobility speed ETV
vector 553 RSUExampleScenario.node[109].veinsmobility speed ETV
vector 554 RSUExampleScenario.node[110].veinsmobility speed ETV
vector 555 RSUExampleScenario.node[111].veinsmobility speed ETV
vector 556 RSUExampleScenario.node[113].veinsmobility speed ETV
vector 557 RSUExampleScenario.node[136].veinsmobility posx ETV
vector 558 RSUExampleScenario.node[136].veinsmobility posy ETV
vector 559 RSUExampleScenario.node[137].veinsmobility posx ETV
vector 560 RSUExampleScenario.node[137].veinsmobility posy ETV
vector 561 RSUExampleScenario.node[138].veinsmobility posx ETV
vector 562 RSUExampleScenario.node[138].veinsmobility posy ETV
vector 563 RSUExampleScenario.node[139].veinsmobility posx ETV
vector 564 RSUExampleScenario.node[139].veinsmobility posy ETV
vector 565 RSUExampleScenario.node[140].veinsmobility posx ETV
vector 566 RSUExampleScenario.node[140].veinsmobility posy ETV
vector 567 RSUExampleScenario.node[141].veinsmobility posx ETV
vector 568 RSUExampleScenario.node[141].veinsmobility posy ETV
vector 569 RSUExampleScenario.node[142].veinsmobility posx ETV
vector 570 RSUExampleScenario.node[142].veinsmobility posy ETV
vector 571 RSUExampleScenario.node[143].veinsmobility posx ETV
vector 572 RSUExampleScenario.node[143].veinsmobility posy ETV
vector 573 RSUExampleScenario.node[144].veinsmobility posx ETV
vector 574 RSUExampleScenario.node[144].veinsmobility posy ETV
vector 575 RSUExampleScenario.node[145].veinsmobility posx ETV
vector 576 RSUExampleScenario.node[145].veinsmobility posy ETV
vector 577 RSUExampleScenario.node[146].veinsmobility posx ETV
vector 578 RSUExampleScenario.node[146].veinsmobility posy ETV
vector 579 RSUExampleScenario.node[147].veinsmobility posx ETV
vector 580 RSUExampleScenario.node[147].veinsmobility posy ETV
vector 581 RSUExampleScenario.node[148].veinsmobility posx ETV
vector 582 RSUExampleScenario.node[148].veinsmobility posy ETV
vector 583 RSUExampleScenario.node[149].veinsmobility posx ETV
vector 584 RSUExampleScenario.node[149].veinsmobility posy ETV
vector 585 RSUExampleScenario.node[150].veinsmobility posx ETV
vector 586 RSUExampleScenario.node[150].veinsmobility posy ETV
vector 587 RSUExampleScenario.node[151].veinsmobility posx ETV
vector 588 RSUExampleScenario.node[151].veinsmobility posy ETV
vector 589 RSUExampleScenario.node[152].veinsmobility posx ETV
vector 590 RSUExampleScenario.node[152].veinsmobility posy ETV
vector 591 RSUExampleScenario.node[153].veinsmobility posx ETV
vector 592 RSUExampleScenario.node[153].veinsmobility posy ETV
vector 593 RSUExampleScenario.node[154].veinsmobility posx ETV
vector 594 RSUExampleScenario.node[154].veinsmobility posy ETV
vector 595 RSUExampleScenario.node[155].veinsmobility posx ETV
vector 596 RSUExampleScenario.node[155].veinsmobility posy ETV
vector 597 RSUExampleScenario.node[156].veinsmobility posx ETV
vector 598 RSUExampleScenario.node[156].veinsmobility posy ETV
vector 599 RSUExampleScenario.node[86].veinsmobility acceleration ETV
vector 600 RSUExampleScenario.node[86].veinsmobility co2emission ETV
vector 601 RSUExampleScenario.node[87].veinsmobility acceleration ETV
vector 602 RSUExampleScenario.node[87].veinsmobility co2emission ETV
vector 603 RSUExampleScenario.node[88].veinsmobility acceleration ETV
vector 604 RSUExampleScenario.node[88].veinsmobility co2emission ETV
vector 605 RSUExampleScenario.node[89].veinsmobility acceleration ETV
vector 606 RSUExampleScenario.node[89].veinsmobility co2emission ETV
vector 607 RSUExampleScenario.node[90].veinsmobility acceleration ETV
vector 608 RSUExampleScenario.node[90].veinsmobility co2emission ETV
vector 609 RSUExampleScenario.node[91].veinsmobility acceleration ETV
vector 610 RSUExampleScenario.node[91].veinsmobility co2emission ETV
vector 611 RSUExampleScenario.node[92].veinsmobility acceleration ETV
vector 612 RSUExampleScenario.node[92].veinsmobility co2emission ETV
vector 613 RSUExampleScenario.node[93].veinsmobility acceleration ETV
vector 614 RSUExampleScenario.node[93].veinsmobility co2emission ETV
vector 615 RSUExampleScenario.node[94].veinsmobility acceleration ETV
vector 616 RSUExampleScenario.node[94].veinsmobility co2emission ETV
vector 617 RSUExampleScenario.node[95].veinsmobility acceleration ETV
vector 618 RSUExampleScenario.node[95].veinsmobility co2emission ETV
vector 619 RSUExampleScenario.node[96].veinsmobility acceleration ETV
vector 620 RSUExampleScenario.node[96].veinsmobility co2emission ETV
vector 621 RSUExampleScenario.node[97].veinsmobility acceleration ETV
vector 622 RSUExampleScenario.node[97].veinsmobility co2emission ETV
vector 623 RSUExampleScenario.node[98].veinsmobility acceleration ETV
vector 624 RSUExampleScenario.node[98].veinsmobility co2emission ETV
vector 625 RSUExampleScenario.node[99].veinsmobility acceleration ETV
vector 626 RSUExampleScenario.node[99].veinsmobility co2emission ETV
vector 627 RSUExampleScenario.node[100].veinsmobility acceleration ETV
vector 628 RSUExampleScenario.node[100].veinsmobility co2emission ETV
vector 629 RSUExampleScenario.node[101].veinsmobility acceleration ETV
vector 630 RSUExampleScenario.node[101].veinsmobility co2emission ETV
vector 631 RSUExampleScenario.node[102].veinsmobility acceleration ETV
vector 632 RSUExampleScenario.node[102].veinsmobility co2emission ETV
vector 633 RSUExampleScenario.node[103].veinsmobility acceleration ETV
vector 634 RSUExampleScenario.node[103].veinsmobility co2emission ETV
vector 635 RSUExampleScenario.node[104].veinsmobility acceleration ETV
vector 636 RSUExampleScenario.node[104].veinsmobility co2emission ETV
vector 637 RSUExampleScenario.node[105].veinsmobility acceleration ETV
vector 638 RSUExampleScenario.node[105].veinsmobility co2emission ETV
vector 639 RSUExampleScenario.node[106].veinsmobility acceleration ETV
vector 640 RSUExampleScenario.node[106].veinsmobility co2emission ETV
vector 641 RSUExampleScenario.node[107].veinsmobility acceleration ETV
vector 642 RSUExampleScenario.node[107].veinsmobility co2emission ETV
vector 643 RSUExampleScenario.node[108].veinsmobility acceleration ETV
vector 644 RSUExampleScenario.node[108].veinsmobility co2emission ETV
vector 645 RSUExampleScenario.node[109].veinsmobility acceleration ETV
vector 646 RSUExampleScenario.node[109].veinsmobility co2emission ETV
vector 647 RSUExampleScenario.node[110].veinsmobility acceleration ETV
vector 648 RSUExampleScenario.node[110].veinsmobility co2emission ETV
vector 649 RSUExampleScenario.node[111].veinsmobility acceleration ETV
vector 650 RSUExampleScenario.node[111].veinsmobility co2emission ETV
vector 651 RSUExampleScenario.node[113].veinsmobility acceleration ETV
vector 652 RSUExampleScenario.node[113].veinsmobility co2emission ETV
vector 653 RSUExampleScenario.node[114].veinsmobility speed ETV
vector 654 RSUExampleScenario.node[115].veinsmobility speed ETV
vector 655 RSUExampleScenario.node[116].veinsmobility speed ETV
vector 656 RSUExampleScenario.node[117].veinsmobility speed ETV
vector 657 RSUExampleScenario.node[118].veinsmobility speed ETV
vector 658 RSUExampleScenario.node[119].veinsmobility speed ETV
vector 659 RSUExampleScenario.node[120].veinsmobility speed ETV
vector 660 RSUExampleScenario.node[121].veinsmobility speed ETV
vector 661 RSUExampleScenario.node[122].veinsmobility speed ETV
vector 662 RSUExampleScenario.node[123].veinsmobility speed ETV
vector 663 RSUExampleScenario.node[124].veinsmobility speed ETV
vector 664 RSUExampleScenario.node[125].veinsmobility speed ETV
vector 665 RSUExampleScenario.node[126].veinsmobility speed ETV
vector 666 RSUExampleScenario.node[127].veinsmobility speed ETV
vector 667 RSUExampleScenario.node[128].veinsmobility speed ETV
vector 668 RSUExampleScenario.node[129].veinsmobility speed ETV
vector 669 RSUExampleScenario.node[130].veinsmobility speed ETV
vector 670 RSUExampleScenario.node[131].veinsmobility speed ETV
vector 671 RSUExampleScenario.node[132].veinsmobility speed ETV
vector 672 RSUExampleScenario.node[133].veinsmobility speed ETV
vector 673 RSUExampleScenario.node[134].veinsmobility speed ETV
vector 674 RSUExampleScenario.node[135].veinsmobility speed ETV
vector 675 RSUExampleScenario.node[157].veinsmobility posx ETV
vector 676 RSUExampleScenario.node[157].veinsmobility posy ETV
vector 677 RSUExampleScenario.node[158].veinsmobility posx ETV
vector 678 RSUExampleScenario.node[158].veinsmobility posy ETV
vector 679 RSUExampleScenario.node[159].veinsmobility posx ETV
vector 680 RSUExampleScenario.node[159].veinsmobility posy ETV
vector 681 RSUExampleScenario.node[160].veinsmobility posx ETV
vector 682 RSUExampleScenario.node[160].veinsmobility posy ETV
vector 683 RSUExampleScenario.node[161].veinsmobility posx ETV
vector 684 RSUExampleScenario.node[161].veinsmobility posy ETV
vector 685 RSUExampleScenario.node[162].veinsmobility posx ETV
vector 686 RSUExampleScenario.node[162].veinsmobility posy ETV
vector 687 RSUExampleScenario.node[163].veinsmobility posx ETV
vector 688 RSUExampleScenario.node[163].veinsmobility posy ETV
vector 689 RSUExampleScenario.node[164].veinsmobility posx ETV
vector 690 RSUExampleScenario.node[164].veinsmobility posy ETV
vector 691 RSUExampleScenario.node[165].veinsmobility posx ETV
vector 692 RSUExampleScenario.node[165].veinsmobility posy ETV
vector 693 RSUExampleScenario.node[166].veinsmobility posx ETV
vector 694 RSUExampleScenario.node[166].veinsmobility posy ETV
vector 695 RSUExampleScenario.node[167].veinsmobility posx ETV
vector 696 RSUExampleScenario.node[167].veinsmobility posy ETV
vector 697 RSUExampleScenario.node[168].veinsmobility posx ETV
vector 698 RSUExampleScenario.node[168].veinsmobility posy ETV
vector 699 RSUExampleScenario.node[169].veinsmobility posx ETV
vector 700 RSUExampleScenario.node[169].veinsmobility posy ETV
vector 701 RSUExampleScenario.node[170].veinsmobility posx ETV
vector 702 RSUExampleScenario.node[170].veinsmobility posy ETV
vector 703 RSUExampleScenario.node[171].veinsmobility posx ETV
vector 704 RSUExampleScenario.node[171].veinsmobility posy ETV
vector 705 RSUExampleScenario.node[172].veinsmobility posx ETV
vector 706 RSUExampleScenario.node[172].veinsmobility posy ETV
vector 707 RSUExampleScenario.node[173].veinsmobility posx ETV
vector 708 RSUExampleScenario.node[173].veinsmobility posy ETV
vector 709 RSUExampleScenario.node[174].veinsmobility posx ETV
vector 710 RSUExampleScenario.node[174].veinsmobility posy ETV
vector 711 RSUExampleScenario.node[175].veinsmobility posx ETV
vector 712 RSUExampleScenario.node[175].veinsmobility posy ETV
vector 713 RSUExampleScenario.node[176].veinsmobility posx ETV
vector 714 RSUExampleScenario.node[176].veinsmobility posy ETV
vector 715 RSUExampleScenario.node[177].veinsmobility posx ETV
vector 716 RSUExampleScenario.node[177].veinsmobility posy ETV
vector 717 RSUExampleScenario.node[178].veinsmobility posx ETV
vector 718 RSUExampleScenario.node[178].veinsmobility posy ETV
vector 719 RSUExampleScenario.node[179].veinsmobility posx ETV
vector 720 RSUExampleScenario.node[179].veinsmobility posy ETV
vector 721 RSUExampleScenario.node[114].veinsmobility acceleration ETV
vector 722 RSUExampleScenario.node[114].veinsmobility co2emission ETV
vector 723 RSUExampleScenario.node[115].veinsmobility acceleration ETV
vector 724 RSUExampleScenario.node[115].veinsmobility co2emission ETV
vector 725 RSUExampleScenario.node[116].veinsmobility acceleration ETV
vector 726 RSUExampleScenario.node[116].veinsmobility co2emission ETV
vector 727 RSUExampleScenario.node[117].veinsmobility acceleration ETV
vector 728 RSUExampleScenario.node[117].veinsmobility co2emission ETV
vector 729 RSUExampleScenario.node[118].veinsmobility acceleration ETV
vector 730 RSUExampleScenario.node[118].veinsmobility co2emission ETV
vector 731 RSUExampleScenario.node[119].veinsmobility acceleration ETV
vector 732 RSUExampleScenario.node[119].veinsmobility co2emission ETV
vector 733 RSUExampleScenario.node[120].veinsmobility acceleration ETV
vector 734 RSUExampleScenario.node[120].veinsmobility co2emission ETV
vector 735 RSUExampleScenario.node[121].veinsmobility acceleration ETV
vector 736 RSUExampleScenario.node[121].veinsmobility co2emission ETV
vector 737 RSUExampleScenario.node[122].veinsmobility acceleration ETV
vector 738 RSUExampleScenario.node[122].veinsmobility co2emission ETV
vector 739 RSUExampleScenario.node[123].veinsmobility acceleration ETV
vector 740 RSUExampleScenario.node[123].veinsmobility co2emission ETV
vector 741 RSUExampleScenario.node[124].veinsmobility acceleration ETV
vector 742 RSUExampleScenario.node[124].veinsmobility co2emission ETV
vector 743 RSUExampleScenario.node[125].veinsmobility acceleration ETV
vector 744 RSUExampleScenario.node[125].veinsmobility co2emission ETV
vector 745 RSUExampleScenario.node[126].veinsmobility acceleration ETV
vector 746 RSUExampleScenario.node[126].veinsmobility co2emission ETV
vector 747 RSUExampleScenario.node[127].veinsmobility acceleration ETV
vector 748 RSUExampleScenario.node[127].veinsmobility co2emission ETV
vector 749 RSUExampleScenario.node[128].veinsmobility acceleration ETV
vector 750 RSUExampleScenario.node[128].veinsmobility co2emission ETV
vector 751 RSUExampleScenario.node[129].veinsmobility acceleration ETV
vector 752 RSUExampleScenario.node[129].veinsmobility co2emission ETV
vector 753 RSUExampleScenario.node[130].veinsmobility acceleration ETV
vector 754 RSUExampleScenario.node[130].veinsmobility co2emission ETV
vector 755 RSUExampleScenario.node[131].veinsmobility acceleration ETV
vector 756 RSUExampleScenario.node[131].veinsmobility co2emission ETV
vector 757 RSUExampleScenario.node[132].veinsmobility acceleration ETV
vector 758 RSUExampleScenario.node[132].veinsmobility co2emission ETV
vector 759 RSUExampleScenario.node[133].veinsmobility acceleration ETV
vector 760 RSUExampleScenario.node[133].veinsmobility co2emission ETV
vector 761 RSUExampleScenario.node[134].veinsmobility acceleration ETV
vector 762 RSUExampleScenario.node[134].veinsmobility co2emission ETV
vector 763 RSUExampleScenario.node[135].veinsmobility acceleration ETV
vector 764 RSUExampleScenario.node[135].veinsmobility co2emission ETV
vector 765 RSUExampleScenario.node[136].veinsmobility speed ETV
vector 766 RSUExampleScenario.node[137].veinsmobility speed ETV
vector 767 RSUExampleScenario.node[138].veinsmobility speed ETV
vector 768 RSUExampleScenario.node[139].veinsmobility speed ETV
vector 769 RSUExampleScenario.node[140].veinsmobility speed ETV
vector 770 RSUExampleScenario.node[141].veinsmobility speed ETV
vector 771 RSUExampleScenario.node[142].veinsmobility speed ETV
vector 772 RSUExampleScenario.node[143].veinsmobility speed ETV
vector 773 RSUExampleScenario.node[144].veinsmobility speed ETV
vector 774 RSUExampleScenario.node[145].veinsmobility speed ETV
vector 775 RSUExampleScenario.node[146].veinsmobility speed ETV
vector 776 RSUExampleScenario.node[147].veinsmobility speed ETV
vector 777 RSUExampleScenario.node[148].veinsmobility speed ETV
vector 778 RSUExampleScenario.node[149].veinsmobility speed ETV
vector 779 RSUExampleScenario.node[150].veinsmobility speed ETV
vector 780 RSUExampleScenario.node[151].veinsmobility speed ETV
vector 781 RSUExampleScenario.node[152].veinsmobility speed ETV
vector 782 RSUExampleScenario.node[153].veinsmobility speed ETV
vector 783 RSUExampleScenario.node[154].veinsmobility speed ETV
vector 784 RSUExampleScenario.node[155].veinsmobility speed ETV
vector 785 RSUExampleScenario.node[156].veinsmobility speed ETV
vector 786 RSUExampleScenario.node[180].veinsmobility posx ETV
vector 787 RSUExampleScenario.node[180].veinsmobility posy ETV
vector 788 RSUExampleScenario.node[181].veinsmobility posx ETV
vector 789 RSUExampleScenario.node[181].veinsmobility posy ETV
vector 790 RSUExampleScenario.node[182].veinsmobility posx ETV
vector 791 RSUExampleScenario.node[182].veinsmobility posy ETV
vector 792 RSUExampleScenario.node[183].veinsmobility posx ETV
vector 793 RSUExampleScenario.node[183].veinsmobility posy ETV
vector 794 RSUExampleScenario.node[184].veinsmobility posx ETV
vector 795 RSUExampleScenario.node[184].veinsmobility posy ETV
vector 796 RSUExampleScenario.node[185].veinsmobility posx ETV
vector 797 RSUExampleScenario.node[185].veinsmobility posy ETV
vector 798 RSUExampleScenario.node[186].veinsmobility posx ETV
vector 799 RSUExampleScenario.node[186].veinsmobility posy ETV
vector 800 RSUExampleScenario.node[187].veinsmobility posx ETV
vector 801 RSUExampleScenario.node[187].veinsmobility posy ETV
vector 802 RSUExampleScenario.node[188].veinsmobility posx ETV
vector 803 RSUExampleScenario.node[188].veinsmobility posy ETV
vector 804 RSUExampleScenario.node[189].veinsmobility posx ETV
vector 805 RSUExampleScenario.node[189].veinsmobility posy ETV
vector 806 RSUExampleScenario.node[190].veinsmobility posx ETV
vector 807 RSUExampleScenario.node[190].veinsmobility posy ETV
vector 808 RSUExampleScenario.node[191].veinsmobility posx ETV
vector 809 RSUExampleScenario.node[191].veinsmobility posy ETV
vector 810 RSUExampleScenario.node[192].veinsmobility posx ETV
vector 811 RSUExampleScenario.node[192].veinsmobility posy ETV
vector 812 RSUExampleScenario.node[193].veinsmobility posx ETV
vector 813 RSUExampleScenario.node[193].veinsmobility posy ETV
vector 814 RSUExampleScenario.node[194].veinsmobility posx ETV
vector 815 RSUExampleScenario.node[194].veinsmobility posy ETV
vector 816 RSUExampleScenario.node[195].veinsmobility posx ETV
vector 817 RSUExampleScenario.node[195].veinsmobility posy ETV
vector 818 RSUExampleScenario.node[196].veinsmobility posx ETV
vector 819 RSUExampleScenario.node[196].veinsmobility posy ETV
vector 820 RSUExampleScenario.node[197].veinsmobility posx ETV
vector 821 RSUExampleScenario.node[197].veinsmobility posy ETV
vector 822 RSUExampleScenario.node[198].veinsmobility posx ETV
vector 823 RSUExampleScenario.node[198].veinsmobility posy ETV
vector 824 RSUExampleScenario.node[199].veinsmobility posx ETV
vector 825 RSUExampleScenario.node[199].veinsmobility posy ETV
vector 826 RSUExampleScenario.node[200].veinsmobility posx ETV
vector 827 RSUExampleScenario.node[200].veinsmobility posy ETV
vector 828 RSUExampleScenario.node[201].veinsmobility posx ETV
vector 829 RSUExampleScenario.node[201].veinsmobility posy ETV
vector 830 RSUExampleScenario.node[202].veinsmobility posx ETV
vector 831 RSUExampleScenario.node[202].veinsmobility posy ETV
vector 832 RSUExampleScenario.node[203].veinsmobility posx ETV
vector 833 RSUExampleScenario.node[203].veinsmobility posy ETV
vector 834 RSUExampleScenario.node[204].veinsmobility posx ETV
vector 835 RSUExampleScenario.node[204].veinsmobility posy ETV
vector 836 RSUExampleScenario.node[205].veinsmobility posx ETV
vector 837 RSUExampleScenario.node[205].veinsmobility posy ETV
vector 838 RSUExampleScenario.node[206].veinsmobility posx ETV
vector 839 RSUExampleScenario.node[206].veinsmobility posy ETV
vector 840 RSUExampleScenario.node[136].veinsmobility acceleration ETV
vector 841 RSUExampleScenario.node[136].veinsmobility co2emission ETV
vector 842 RSUExampleScenario.node[137].veinsmobility acceleration ETV
vector 843 RSUExampleScenario.node[137].veinsmobility co2emission ETV
vector 844 RSUExampleScenario.node[138].veinsmobility acceleration ETV
vector 845 RSUExampleScenario.node[138].veinsmobility co2emission ETV
vector 846 RSUExampleScenario.node[139].veinsmobility acceleration ETV
vector 847 RSUExampleScenario.node[139].veinsmobility co2emission ETV
vector 848 RSUExampleScenario.node[140].veinsmobility acceleration ETV
vector 849 RSUExampleScenario.node[140].veinsmobility co2emission ETV
vector 850 RSUExampleScenario.node[141].veinsmobility acceleration ETV
vector 851 RSUExampleScenario.node[141].veinsmobility co2emission ETV
vector 852 RSUExampleScenario.node[142].veinsmobility acceleration ETV
vector 853 RSUExampleScenario.node[142].veinsmobility co2emission ETV
vector 854 RSUExampleScenario.node[143].veinsmobility acceleration ETV
vector 855 RSUExampleScenario.node[143].veinsmobility co2emission ETV
vector 856 RSUExampleScenario.node[144].veinsmobility acceleration ETV
vector 857 RSUExampleScenario.node[144].veinsmobility co2emission ETV
vector 858 RSUExampleScenario.node[145].veinsmobility acceleration ETV
vector 859 RSUExampleScenario.node[145].veinsmobility co2emission ETV
vector 860 RSUExampleScenario.node[146].veinsmobility acceleration ETV
vector 861 RSUExampleScenario.node[146].veinsmobility co2emission ETV
vector 862 RSUExampleScenario.node[147].veinsmobility acceleration ETV
vector 863 RSUExampleScenario.node[147].veinsmobility co2emission ETV
vector 864 RSUExampleScenario.node[148].veinsmobility acceleration ETV
vector 865 RSUExampleScenario.node[148].veinsmobility co2emission ETV
vector 866 RSUExampleScenario.node[149].veinsmobility acceleration ETV
vector 867 RSUExampleScenario.node[149].veinsmobility co2emission ETV
vector 868 RSUExampleScenario.node[150].veinsmobility acceleration ETV
vector 869 RSUExampleScenario.node[150].veinsmobility co2emission ETV
vector 870 RSUExampleScenario.node[151].veinsmobility acceleration ETV
vector 871 RSUExampleScenario.node[151].veinsmobility co2emission ETV
vector 872 RSUExampleScenario.node[152].veinsmobility acceleration ETV
vector 873 RSUExampleScenario.node[152].veinsmobility co2emission ETV
vector 874 RSUExampleScenario.node[153].veinsmobility acceleration ETV
vector 875 RSUExampleScenario.node[153].veinsmobility co2emission ETV
vector 876 RSUExampleScenario.node[154].veinsmobility acceleration ETV
vector 877 RSUExampleScenario.node[154].veinsmobility co2emission ETV
vector 878 RSUExampleScenario.node[155].veinsmobility acceleration ETV
vector 879 RSUExampleScenario.node[155].veinsmobility co2emission ETV
vector 880 RSUExampleScenario.node[156].veinsmobility acceleration ETV
vector 881 RSUExampleScenario.node[156].veinsmobility co2emission ETV
vector 882 RSUExampleScenario.node[157].veinsmobility speed ETV
vector 883 RSUExampleScenario.node[158].veinsmobility speed ETV
vector 884 RSUExampleScenario.node[159].veinsmobility speed ETV
vector 885 RSUExampleScenario.node[160].veinsmobility speed ETV
vector 886 RSUExampleScenario.node[161].veinsmobility speed ETV
vector 887 RSUExampleScenario.node[162].veinsmobility speed ETV
vector 888 RSUExampleScenario.node[163].veinsmobility speed ETV
vector 889 RSUExampleScenario.node[164].veinsmobility speed ETV
vector 890 RSUExampleScenario.node[165].veinsmobility speed ETV
vector 891 RSUExampleScenario.node[166].veinsmobility speed ETV
vector 892 RSUExampleScenario.node[167].veinsmobility speed ETV
vector 893 RSUExampleScenario.node[168].veinsmobility speed ETV
vector 894 RSUExampleScenario.node[169].veinsmobility speed ETV
vector 895 RSUExampleScenario.node[170].veinsmobility speed ETV
vector 896 RSUExampleScenario.node[171].veinsmobility speed ETV
vector 897 RSUExampleScenario.node[172].veinsmobility speed ETV
vector 898 RSUExampleScenario.node[173].veinsmobility speed ETV
vector 899 RSUExampleScenario.node[174].veinsmobility speed ETV
vector 900 RSUExampleScenario.node[175].veinsmobility speed ETV
vector 901 RSUExampleScenario.node[176].veinsmobility speed ETV
vector 902 RSUExampleScenario.node[177].veinsmobility speed ETV
vector 903 RSUExampleScenario.node[178].veinsmobility speed ETV
vector 904 RSUExampleScenario.node[179].veinsmobility speed ETV
vector 905 RSUExampleScenario.node[207].veinsmobility posx ETV
vector 906 RSUExampleScenario.node[207].veinsmobility posy ETV
vector 907 RSUExampleScenario.node[208].veinsmobility posx ETV
vector 908 RSUExampleScenario.node[208].veinsmobility posy ETV
vector 909 RSUExampleScenario.node[209].veinsmobility posx ETV
vector 910 RSUExampleScenario.node[209].veinsmobility posy ETV
vector 911 RSUExampleScenario.node[210].veinsmobility posx ETV
vector 912 RSUExampleScenario.node[210].veinsmobility posy ETV
vector 913 RSUExampleScenario.node[211].veinsmobility posx ETV
vector 914 RSUExampleScenario.node[211].veinsmobility posy ETV
vector 915 RSUExampleScenario.node[212].veinsmobility posx ETV
vector 916 RSUExampleScenario.node[212].veinsmobility posy ETV
vector 917 RSUExampleScenario.node[213].veinsmobility posx ETV
vector 918 RSUExampleScenario.node[213].veinsmobility posy ETV
vector 919 RSUExampleScenario.node[214].veinsmobility posx ETV
vector 920 RSUExampleScenario.node[214].veinsmobility posy ETV
vector 921 RSUExampleScenario.node[215].veinsmobility posx ETV
vector 922 RSUExampleScenario.node[215].veinsmobility posy ETV
vector 923 RSUExampleScenario.node[216].veinsmobility posx ETV
vector 924 RSUExampleScenario.node[216].veinsmobility posy ETV
vector 925 RSUExampleScenario.node[217].veinsmobility posx ETV
vector 926 RSUExampleScenario.node[217].veinsmobility posy ETV
vector 927 RSUExampleScenario.node[218].veinsmobility posx ETV
vector 928 RSUExampleScenario.node[218].veinsmobility posy ETV
vector 929 RSUExampleScenario.node[219].veinsmobility posx ETV
vector 930 RSUExampleScenario.node[219].veinsmobility posy ETV
vector 931 RSUExampleScenario.node[220].veinsmobility posx ETV
vector 932 RSUExampleScenario.node[220].veinsmobility posy ETV
vector 933 RSUExampleScenario.node[221].veinsmobility posx ETV
vector 934 RSUExampleScenario.node[221].veinsmobility posy ETV
vector 935 RSUExampleScenario.node[222].veinsmobility posx ETV
vector 936 RSUExampleScenario.node[222].veinsmobility posy ETV
vector 937 RSUExampleScenario.node[223].veinsmobility posx ETV
vector 938 RSUExampleScenario.node[223].veinsmobility posy ETV
vector 939 RSUExampleScenario.node[224].veinsmobility posx ETV
vector 940 RSUExampleScenario.node[224].veinsmobility posy ETV
vector 941 RSUExampleScenario.node[225].veinsmobility posx ETV
vector 942 RSUExampleScenario.node[225].veinsmobility posy ETV
vector 943 RSUExampleScenario.node[226].veinsmobility posx ETV
vector 944 RSUExampleScenario.node[226].veinsmobility posy ETV
vector 945 RSUExampleScenario.node[227].veinsmobility posx ETV
vector 946 RSUExampleScenario.node[227].veinsmobility posy ETV
vector 947 RSUExampleScenario.node[157].veinsmobility acceleration ETV
vector 948 RSUExampleScenario.node[157].veinsmobility co2emission ETV
vector 949 RSUExampleScenario.node[158].veinsmobility acceleration ETV
vector 950 RSUExampleScenario.node[158].veinsmobility co2emission ETV
vector 951 RSUExampleScenario.node[159].veinsmobility acceleration ETV
vector 952 RSUExampleScenario.node[159].veinsmobility co2emission ETV
vector 953 RSUExampleScenario.node[160].veinsmobility acceleration ETV
vector 954 RSUExampleScenario.node[160].veinsmobility co2emission ETV
vector 955 RSUExampleScenario.node[161].veinsmobility acceleration ETV
vector 956 RSUExampleScenario.node[161].veinsmobility co2emission ETV
vector 957 RSUExampleScenario.node[162].veinsmobility acceleration ETV
vector 958 RSUExampleScenario.node[162].veinsmobility co2emission ETV
vector 959 RSUExampleScenario.node[163].veinsmobility acceleration ETV
vector 960 RSUExampleScenario.node[163].veinsmobility co2emission ETV
vector 961 RSUExampleScenario.node[164].veinsmobility acceleration ETV
vector 962 RSUExampleScenario.node[164].veinsmobility co2emission ETV
vector 963 RSUExampleScenario.node[165].veinsmobility acceleration ETV
vector 964 RSUExampleScenario.node[165].veinsmobility co2emission ETV
vector 965 RSUExampleScenario.node[166].veinsmobility acceleration ETV
vector 966 RSUExampleScenario.node[166].veinsmobility co2emission ETV
vector 967 RSUExampleScenario.node[167].veinsmobility acceleration ETV
vector 968 RSUExampleScenario.node[167].veinsmobility co2emission ETV
vector 969 RSUExampleScenario.node[168].veinsmobility acceleration ETV
vector 970 RSUExampleScenario.node[168].veinsmobility co2emission ETV
vector 971 RSUExampleScenario.node[169].veinsmobility acceleration ETV
vector 972 RSUExampleScenario.node[169].veinsmobility co2emission ETV
vector 973 RSUExampleScenario.node[170].veinsmobility acceleration ETV
vector 974 RSUExampleScenario.node[170].veinsmobility co2emission ETV
vector 975 RSUExampleScenario.node[171].veinsmobility acceleration ETV
vector 976 RSUExampleScenario.node[171].veinsmobility co2emission ETV
vector 977 RSUExampleScenario.node[172].veinsmobility acceleration ETV
vector 978 RSUExampleScenario.node[172].veinsmobility co2emission ETV
vector 979 RSUExampleScenario.node[173].veinsmobility acceleration ETV
vector 980 RSUExampleScenario.node[173].veinsmobility co2emission ETV
vector 981 RSUExampleScenario.node[174].veinsmobility acceleration ETV
vector 982 RSUExampleScenario.node[174].veinsmobility co2emission ETV
vector 983 RSUExampleScenario.node[175].veinsmobility acceleration ETV
vector 984 RSUExampleScenario.node[175].veinsmobility co2emission ETV
vector 985 RSUExampleScenario.node[176].veinsmobility acceleration ETV
vector 986 RSUExampleScenario.node[176].veinsmobility co2emission ETV
vector 987 RSUExampleScenario.node[177].veinsmobility acceleration ETV
vector 988 RSUExampleScenario.node[177].veinsmobility co2emission ETV
vector 989 RSUExampleScenario.node[178].veinsmobility acceleration ETV
vector 990 RSUExampleScenario.node[178].veinsmobility co2emission ETV
vector 991 RSUExampleScenario.node[179].veinsmobility acceleration ETV
vector 992 RSUExampleScenario.node[179].veinsmobility co2emission ETV
vector 993 RSUExampleScenario.node[180].veinsmobility speed ETV
vector 994 RSUExampleScenario.node[181].veinsmobility speed ETV
vector 995 RSUExampleScenario.node[182].veinsmobility speed ETV
vector 996 RSUExampleScenario.node[183].veinsmobility speed ETV
vector 997 RSUExampleScenario.node[184].veinsmobility speed ETV
vector 998 RSUExampleScenario.node[185].veinsmobility speed ETV
vector 999 RSUExampleScenario.node[186].veinsmobility speed ETV
vector 1000 RSUExampleScenario.node[187].veinsmobility speed ETV
vector 1001 RSUExampleScenario.node[188].veinsmobility speed ETV
vector 1002 RSUExampleScenario.node[189].veinsmobility speed ETV
vector 1003 RSUExampleScenario.node[190].veinsmobility speed ETV
vector 1004 RSUExampleScenario.node[191].veinsmobility speed ETV
vector 1005 RSUExampleScenario.node[192].veinsmobility speed ETV
vector 1006 RSUExampleScenario.node[193].veinsmobility speed ETV
vector 1007 RSUExampleScenario.node[194].veinsmobility speed ETV
vector 1008 RSUExampleScenario.node[195].veinsmobility speed ETV
vector 1009 RSUExampleScenario.node[196].veinsmobility speed ETV
vector 1010 RSUExampleScenario.node[197].veinsmobility speed ETV
vector 1011 RSUExampleScenario.node[198].veinsmobility speed ETV
vector 1012 RSUExampleScenario.node[199].veinsmobility speed ETV
vector 1013 RSUExampleScenario.node[200].veinsmobility speed ETV
vector 1014 RSUExampleScenario.node[201].veinsmobility speed ETV
vector 1015 RSUExampleScenario.node[202].veinsmobility speed ETV
vector 1016 RSUExampleScenario.node[203].veinsmobility speed ETV
vector 1017 RSUExampleScenario.node[204].veinsmobility speed ETV
vector 1018 RSUExampleScenario.node[205].veinsmobility speed ETV
vector 1019 RSUExampleScenario.node[206].veinsmobility speed ETV
vector 1020 RSUExampleScenario.node[228].veinsmobility posx ETV
vector 1021 RSUExampleScenario.node[228].veinsmobility posy ETV
vector 1022 RSUExampleScenario.node[229].veinsmobility posx ETV
vector 1023 RSUExampleScenario.node[229].veinsmobility posy ETV
vector 1024 RSUExampleScenario.node[230].veinsmobility posx ETV
vector 1025 RSUExampleScenario.node[230].veinsmobility posy ETV
vector 1026 RSUExampleScenario.node[231].veinsmobility posx ETV
vector 1027 RSUExampleScenario.node[231].veinsmobility posy ETV
vector 1028 RSUExampleScenario.node[232].veinsmobility posx ETV
vector 1029 RSUExampleScenario.node[232].veinsmobility posy ETV
vector 1030 RSUExampleScenario.node[233].veinsmobility posx ETV
vector 1031 RSUExampleScenario.node[233].veinsmobility posy ETV
vector 1032 RSUExampleScenario.node[234].veinsmobility posx ETV
vector 1033 RSUExampleScenario.node[234].veinsmobility posy ETV
vector 1034 RSUExampleScenario.node[235].veinsmobility posx ETV
vector 1035 RSUExampleScenario.node[235].veinsmobility posy ETV
vector 1036 RSUExampleScenario.node[236].veinsmobility posx ETV
vector 1037 RSUExampleScenario.node[236].veinsmobility posy ETV
vector 1038 RSUExampleScenario.node[237].veinsmobility posx ETV
vector 1039 RSUExampleScenario.node[237].veinsmobility posy ETV
vector 1040 RSUExampleScenario.node[238].veinsmobility posx ETV
vector 1041 RSUExampleScenario.node[238].veinsmobility posy ETV
vector 1042 RSUExampleScenario.node[239].veinsmobility posx ETV
vector 1043 RSUExampleScenario.node[239].veinsmobility posy ETV
vector 1044 RSUExampleScenario.node[240].veinsmobility posx ETV
vector 1045 RSUExampleScenario.node[240].veinsmobility posy ETV
vector 1046 RSUExampleScenario.node[241].veinsmobility posx ETV
vector 1047 RSUExampleScenario.node[241].veinsmobility posy ETV
vector 1048 RSUExampleScenario.node[242].veinsmobility posx ETV
vector 1049 RSUExampleScenario.node[242].veinsmobility posy ETV
vector 1050 RSUExampleScenario.node[243].veinsmobility posx ETV
vector 1051 RSUExampleScenario.node[243].veinsmobility posy ETV
vector 1052 RSUExampleScenario.node[244].veinsmobility posx ETV
vector 1053 RSUExampleScenario.node[244].veinsmobility posy ETV
vector 1054 RSUExampleScenario.node[245].veinsmobility posx ETV
vector 1055 RSUExampleScenario.node[245].veinsmobility posy ETV
vector 1056 RSUExampleScenario.node[246].veinsmobility posx ETV
vector 1057 RSUExampleScenario.node[246].veinsmobility posy ETV
vector 1058 RSUExampleScenario.node[247].veinsmobility posx ETV
vector 1059 RSUExampleScenario.node[247].veinsmobility posy ETV
vector 1060 RSUExampleScenario.node[180].veinsmobility acceleration ETV
vector 1061 RSUExampleScenario.node[180].veinsmobility co2emission ETV
vector 1062 RSUExampleScenario.node[181].veinsmobility acceleration ETV
vector 1063 RSUExampleScenario.node[181].veinsmobility co2emission ETV
vector 1064 RSUExampleScenario.node[182].veinsmobility acceleration ETV
vector 1065 RSUExampleScenario.node[182].veinsmobility co2emission ETV
vector 1066 RSUExampleScenario.node[183].veinsmobility acceleration ETV
vector 1067 RSUExampleScenario.node[183].veinsmobility co2emission ETV
vector 1068 RSUExampleScenario.node[184].veinsmobility acceleration ETV
vector 1069 RSUExampleScenario.node[184].veinsmobility co2emission ETV
vector 1070 RSUExampleScenario.node[185].veinsmobility acceleration ETV
vector 1071 RSUExampleScenario.node[185].veinsmobility co2emission ETV
vector 1072 RSUExampleScenario.node[186].veinsmobility acceleration ETV
vector 1073 RSUExampleScenario.node[186].veinsmobility co2emission ETV
vector 1074 RSUExampleScenario.node[187].veinsmobility acceleration ETV
vector 1075 RSUExampleScenario.node[187].veinsmobility co2emission ETV
vector 1076 RSUExampleScenario.node[188].veinsmobility acceleration ETV
vector 1077 RSUExampleScenario.node[188].veinsmobility co2emission ETV
vector 1078 RSUExampleScenario.node[189].veinsmobility acceleration ETV
vector 1079 RSUExampleScenario.node[189].veinsmobility co2emission ETV
vector 1080 RSUExampleScenario.node[190].veinsmobility acceleration ETV
vector 1081 RSUExampleScenario.node[190].veinsmobility co2emission ETV
vector 1082 RSUExampleScenario.node[191].veinsmobility acceleration ETV
vector 1083 RSUExampleScenario.node[191].veinsmobility co2emission ETV
vector 1084 RSUExampleScenario.node[192].veinsmobility acceleration ETV
vector 1085 RSUExampleScenario.node[192].veinsmobility co2emission ETV
vector 1086 RSUExampleScenario.node[193].veinsmobility acceleration ETV
vector 1087 RSUExampleScenario.node[193].veinsmobility co2emission ETV
vector 1088 RSUExampleScenario.node[194].veinsmobility acceleration ETV
vector 1089 RSUExampleScenario.node[194].veinsmobility co2emission ETV
vector 1090 RSUExampleScenario.node[195].veinsmobility acceleration ETV
vector 1091 RSUExampleScenario.node[195].veinsmobility co2emission ETV
vector 1092 RSUExampleScenario.node[196].veinsmobility acceleration ETV
vector 1093 RSUExampleScenario.node[196].veinsmobility co2emission ETV
vector 1094 RSUExampleScenario.node[197].veinsmobility acceleration ETV
vector 1095 RSUExampleScenario.node[197].veinsmobility co2emission ETV
vector 1096 RSUExampleScenario.node[198].veinsmobility acceleration ETV
vector 1097 RSUExampleScenario.node[198].veinsmobility co2emission ETV
vector 1098 RSUExampleScenario.node[199].veinsmobility acceleration ETV
vector 1099 RSUExampleScenario.node[199].veinsmobility co2emission ETV
vector 1100 RSUExampleScenario.node[200].veinsmobility acceleration ETV
vector 1101 RSUExampleScenario.node[200].veinsmobility co2emission ETV
vector 1102 RSUExampleScenario.node[201].veinsmobility acceleration ETV
vector 1103 RSUExampleScenario.node[201].veinsmobility co2emission ETV
vector 1104 RSUExampleScenario.node[202].veinsmobility acceleration ETV
vector 1105 RSUExampleScenario.node[202].veinsmobility co2emission ETV
vector 1106 RSUExampleScenario.node[203].veinsmobility acceleration ETV
vector 1107 RSUExampleScenario.node[203].veinsmobility co2emission ETV
vector 1108 RSUExampleScenario.node[204].veinsmobility acceleration ETV
vector 1109 RSUExampleScenario.node[204].veinsmobility co2emission ETV
vector 1110 RSUExampleScenario.node[205].veinsmobility acceleration ETV
vector 1111 RSUExampleScenario.node[205].veinsmobility co2emission ETV
vector 1112 RSUExampleScenario.node[206].veinsmobility acceleration ETV
vector 1113 RSUExampleScenario.node[206].veinsmobility co2emission ETV
vector 1114 RSUExampleScenario.node[207].veinsmobility speed ETV
vector 1115 RSUExampleScenario.node[208].veinsmobility speed ETV
vector 1116 RSUExampleScenario.node[209].veinsmobility speed ETV
vector 1117 RSUExampleScenario.node[210].veinsmobility speed ETV
vector 1118 RSUExampleScenario.node[211].veinsmobility speed ETV
vector 1119 RSUExampleScenario.node[212].veinsmobility speed ETV
vector 1120 RSUExampleScenario.node[213].veinsmobility speed ETV
vector 1121 RSUExampleScenario.node[214].veinsmobility speed ETV
vector 1122 RSUExampleScenario.node[215].veinsmobility speed ETV
vector 1123 RSUExampleScenario.node[216].veinsmobility speed ETV
vector 1124 RSUExampleScenario.node[217].veinsmobility speed ETV
vector 1125 RSUExampleScenario.node[218].veinsmobility speed ETV
vector 1126 RSUExampleScenario.node[219].veinsmobility speed ETV
vector 1127 RSUExampleScenario.node[220].veinsmobility speed ETV
vector 1128 RSUExampleScenario.node[221].veinsmobility speed ETV
vector 1129 RSUExampleScenario.node[222].veinsmobility speed ETV
vector 1130 RSUExampleScenario.node[223].veinsmobility speed ETV
vector 1131 RSUExampleScenario.node[224].veinsmobility speed ETV
vector 1132 RSUExampleScenario.node[225].veinsmobility speed ETV
vector 1133 RSUExampleScenario.node[226].veinsmobility speed ETV
vector 1134 RSUExampleScenario.node[227].veinsmobility speed ETV
vector 1135 RSUExampleScenario.node[248].veinsmobility posx ETV
vector 1136 RSUExampleScenario.node[248].veinsmobility posy ETV
vector 1137 RSUExampleScenario.node[249].veinsmobility posx ETV
vector 1138 RSUExampleScenario.node[249].veinsmobility posy ETV
vector 1139 RSUExampleScenario.node[250].veinsmobility posx ETV
vector 1140 RSUExampleScenario.node[250].veinsmobility posy ETV
vector 1141 RSUExampleScenario.node[251].veinsmobility posx ETV
vector 1142 RSUExampleScenario.node[251].veinsmobility posy ETV
vector 1143 RSUExampleScenario.node[252].veinsmobility posx ETV
vector 1144 RSUExampleScenario.node[252].veinsmobility posy ETV
vector 1145 RSUExampleScenario.node[253].veinsmobility posx ETV
vector 1146 RSUExampleScenario.node[253].veinsmobility posy ETV
vector 1147 RSUExampleScenario.node[254].veinsmobility posx ETV
vector 1148 RSUExampleScenario.node[254].veinsmobility posy ETV
vector 1149 RSUExampleScenario.node[255].veinsmobility posx ETV
vector 1150 RSUExampleScenario.node[255].veinsmobility posy ETV
vector 1151 RSUExampleScenario.node[256].veinsmobility posx ETV
vector 1152 RSUExampleScenario.node[256].veinsmobility posy ETV
vector 1153 RSUExampleScenario.node[257].veinsmobility posx ETV
vector 1154 RSUExampleScenario.node[257].veinsmobility posy ETV
vector 1155 RSUExampleScenario.node[258].veinsmobility posx ETV
vector 1156 RSUExampleScenario.node[258].veinsmobility posy ETV
vector 1157 RSUExampleScenario.node[259].veinsmobility posx ETV
vector 1158 RSUExampleScenario.node[259].veinsmobility posy ETV
vector 1159 RSUExampleScenario.node[260].veinsmobility posx ETV
vector 1160 RSUExampleScenario.node[260].veinsmobility posy ETV
vector 1161 RSUExampleScenario.node[261].veinsmobility posx ETV
vector 1162 RSUExampleScenario.node[261].veinsmobility posy ETV
vector 1163 RSUExampleScenario.node[262].veinsmobility posx ETV
vector 1164 RSUExampleScenario.node[262].veinsmobility posy ETV
vector 1165 RSUExampleScenario.node[263].veinsmobility posx ETV
vector 1166 RSUExampleScenario.node[263].veinsmobility posy ETV
vector 1167 RSUExampleScenario.node[264].veinsmobility posx ETV
vector 1168 RSUExampleScenario.node[264].veinsmobility posy ETV
vector 1169 RSUExampleScenario.node[265].veinsmobility posx ETV
vector 1170 RSUExampleScenario.node[265].veinsmobility posy ETV
vector 1171 RSUExampleScenario.node[266].veinsmobility posx ETV
vector 1172 RSUExampleScenario.node[266].veinsmobility posy ETV
vector 1173 RSUExampleScenario.node[267].veinsmobility posx ETV
vector 1174 RSUExampleScenario.node[267].veinsmobility posy ETV
vector 1175 RSUExampleScenario.node[268].veinsmobility posx ETV
vector 1176 RSUExampleScenario.node[268].veinsmobility posy ETV
vector 1177 RSUExampleScenario.node[269].veinsmobility posx ETV
vector 1178 RSUExampleScenario.node[269].veinsmobility posy ETV
vector 1179 RSUExampleScenario.node[270].veinsmobility posx ETV
vector 1180 RSUExampleScenario.node[270].veinsmobility posy ETV
vector 1181 RSUExampleScenario.node[271].veinsmobility posx ETV
vector 1182 RSUExampleScenario.node[271].veinsmobility posy ETV
vector 1183 RSUExampleScenario.node[272].veinsmobility posx ETV
vector 1184 RSUExampleScenario.node[272].veinsmobility posy ETV
vector 1185 RSUExampleScenario.node[273].veinsmobility posx ETV
vector 1186 RSUExampleScenario.node[273].veinsmobility posy ETV
[...]
1169	932654	13	3316.5880961621
1169	1188086	14	3316.6899349073
1170	716694	12	5571.0944368473
1170	932654	13	5571.0944368473
1170	1188086	14	5573.2734348279
1171	716694	12	1828.3652019002
1171	932654	13	1828.3652019002
1171	1188086	14	1830.6656348773
1172	716694	12	7028.0597505938
1172	932654	13	7028.0597505938
1172	1188086	14	7028.4862197508
1173	716694	12	2878.3787327717
1173	932654	13	2878.3787327717
1173	1188086	14	2876.7139519107
1174	716694	12	6541.6954392686
1174	932654	13	6541.6954392686
1174	1188086	14	6540.34976202
1175	716694	12	2713.5248673755
1175	932654	13	2713.5248673755
1175	1188086	14	2713.1542943087
1176	716694	12	6400.7633387012
1176	932654	13	6400.7633387012
1176	1188086	14	6399.6077447296
1177	716694	12	2510.4941781911
1177	932654	13	2510.4941781911
1177	1188086	14	2509.480145818
1178	716694	12	6476.9423802515
1178	932654	13	6476.9423802515
1178	1188086	14	6476.6850116289
1179	716694	12	2106.6868613636
1179	932654	13	2106.6868613636
1179	1188086	14	2105.7265893
1180	716694	12	7061.9252068182
1180	932654	13	7061.9252068182
1180	1188086	14	7061.8185099222
1181	716694	12	2533.3143319796
1181	932654	13	2533.3143319796
1181	1188086	14	2533.2532305015
1182	716694	12	6447.3584325338
1182	932654	13	6447.3584325338
1182	1188086	14	6446.1043974349
1183	716694	12	2635.7951951843
1183	932654	13	2635.7951951843
1183	1188086	14	2635.1334253585
1184	716694	12	6611.9287789673
1184	932654	13	6611.9287789673
1184	1188086	14	6613.0080545306
1185	716694	12	2327.0945393568
1185	932654	13	2327.0945393568
1185	1188086	14	2326.6427369848
1186	716694	12	6635.2080862376
1186	932654	13	6635.2080862376
1186	1188086	14	6634.417845825
1187	716694	12	2065.030264624
1187	932654	13	2065.030264624
1187	1188086	14	2063.9346807712
1188	716694	12	6948.6328412256
1188	932654	13	6948.6328412256
1188	1188086	14	6948.4306614454
1189	716694	12	1976.5029973319
1189	932654	13	1976.5029973319
1189	1188086	14	1976.6678484484
1190	716694	12	7042.3979583778
1190	932654	13	7042.3979583778
1190	1188086	14	7041.2015955451
1191	716694	12	2861.9675978573
1191	932654	13	2861.9675978573
1191	1188086	14	2860.6654595335
1192	716694	12	6447.4970935245
1192	932654	13	6447.4970935245
1192	1188086	14	6447.7429372401
1193	716694	12	3053.9721520903
1193	932654	13	3053.9721520903
1193	1188086	14	3054.0446808331
1194	716694	12	6374.1649340587
1194	932654	13	6374.1649340587
1194	1188086	14	6375.4028796872
1195	716694	12	1763.6681016598
1195	932654	13	1763.6681016598
1195	1188086	14	1763.5018439703
1196	716694	12	7235.8207305821
1196	932654	13	7235.8207305821
1196	1188086	14	7234.9013547271
1197	716694	12	1.1426280701067
1197	932654	13	1.0563977978658
1197	1188086	14	0.67904700678773
1198	716694	12	1.8302154251681
1198	932654	13	2.1061836055889
1198	1188086	14	1.9543583728385
1199	716694	12	0.81995110404678
1199	932654	13	0.74693629271351
1199	1188086	14	1.1807666270994
1200	716694	12	1.5720988461139
1200	932654	13	1.7106154559019
1200	1188086	14	2.3813531880649
1201	716694	12	3.7063140689861
1201	932654	13	2.3420643926019
1201	1188086	14	1.6963739214252
1202	716694	12	8.8132126067216
1202	932654	13	7.6317439445003
1202	1188086	14	6.8379623991357
1203	716694	12	4.906366111245
1203	932654	13	3.768651893232
1203	1188086	14	-0.91608182061464
1204	716694	12	13.260801810797
1204	932654	13	14.321588071622
1204	1188086	14	0.973
1205	716694	12	4.0872519111726
1205	932654	13	3.9968553262297
1205	1188086	14	0.77050556299277
1206	716694	12	8.8178571458463
1206	932654	13	12.798685921971
1206	1188086	14	4.1290955083665
1207	716694	12	3.5608384155203
1207	932654	13	4.2844690969214
1207	1188086	14	1.0667665387597
1208	716694	12	7.8870780779812
1208	932654	13	13.925076008039
1208	1188086	14	5.2071431438453
1209	716694	12	5.9101490357425
1209	932654	13	1.8021512384154
1209	1188086	14	-0.78330449340865
1210	716694	12	16.008767919742
1210	932654	13	6.9850726960739
1210	1188086	14	0.973
1211	716694	12	3.9838768271729
1211	932654	13	4.4154155206494
1211	1188086	14	-0.72632423881441
1212	716694	12	9.7030672563222
1212	932654	13	15.636483287407
1212	1188086	14	0.973
1213	716694	12	3.8357800149824
1213	932654	13	3.0373239941988
1213	1188086	14	-1.4970238865353
1214	716694	12	10.688365297433
1214	932654	13	11.287944336048
1214	1188086	14	0.973
1215	716694	12	3.890347520588
1215	932654	13	2.5223050200874
1215	1188086	14	0.75320606856327
1216	716694	12	9.4276791813845
1216	932654	13	8.3843864178834
1216	1188086	14	3.9348594711846
1217	716694	12	5.1999093729537
1217	932654	13	0.97919874136336
1217	1188086	14	1.7228864128701
1218	716694	12	14.573989088605
1218	932654	13	4.4384346719665
1218	1188086	14	7.3230086323414
1219	716694	12	2.5084659201326
1219	932654	13	1.449230541382
1219	1188086	14	2.449380104593
1220	716694	12	4.1328119124948
1220	932654	13	3.5418731695519
1220	1188086	14	6.60444199383
1221	716694	12	1.8667163401842
1221	932654	13	1.371465191734
1221	1188086	14	1.3146262978669
1222	716694	12	3.0992261414928
1222	932654	13	3.1517801004832
1222	1188086	14	3.5715890633995
1223	716694	12	1.330906640552
1223	932654	13	1.5929114827653
1223	1188086	14	2.1549549178453
1224	716694	12	2.431417938369
1224	932654	13	3.3536832782319
1224	1188086	14	5.2995903546086
1225	716694	12	0.084006377114242
1225	932654	13	0.029821285473493
1225	1188086	14	0.078248649434601
1226	716694	12	1.1958066774818
1226	932654	13	1.1811458882958
1226	1188086	14	1.2013740226694
1227	716694	12	-0.47862622353326
1227	932654	13	0.34239440056909
1227	1188086	14	-0.19782002006347
1228	716694	12	0.973
1228	932654	13	1.2513533483526
1228	1188086	14	0.973
1229	716694	12	-0.37766238981729
1229	932654	13	0.29448994496811
1229	1188086	14	-0.2814397232012
1230	716694	12	0.973
1230	932654	13	1.2280421769133
1230	1188086	14	0.973
1231	716694	12	-0.032242561186043
1231	932654	13	-0.0071946801553067
1231	1188086	14	0.050038726638175
1232	716694	12	1.1537287817712
1232	932654	13	1.1598973342944
1232	1188086	14	1.1776967351799
1233	716694	12	0.42929310907817
1233	932654	13	-0.20262853278028
1233	1188086	14	0.38001890578825
1234	716694	12	1.2837615790363
1234	932654	13	0.973
1234	1188086	14	1.2950487484233
1235	716694	12	1.1277241946431
1235	932654	13	0.91727239257889
1235	1188086	14	0.96530056636548
1236	716694	12	1.8365377743228
1236	932654	13	1.9704925118398
1236	1188086	14	2.2820977288761
1237	716694	12	0.90055699802469
1237	932654	13	1.0575241462095
1237	1188086	14	1.2232729830896
1238	716694	12	1.6896926448296
1238	932654	13	2.0949415940956
1238	1188086	14	2.6490433241393
1239	716694	12	1.1296106600203
1239	932654	13	1.9457875994034
1239	1188086	14	2.5610344058834
1240	716694	12	0.96700823865831
1240	932654	13	1.8609314366709
1240	1188086	14	2.4887260160409
1241	716694	12	1.1199363414198
1241	932654	13	2.0074794811662
1241	1188086	14	3.135407375358
1242	716694	12	0.99396496452391
1242	932654	13	1.6675256873947
1242	1188086	14	2.7623024451546
1243	716694	12	4.987567860866
1243	932654	13	9.3390661391895
1243	1188086	14	11.261919452213
1244	716694	12	4.0289406718221
1244	932654	13	7.8623886150308
1244	1188086	14	11.884585009189
1245	716694	12	4.701047383016
1245	932654	13	8.618573841406
1245	1188086	14	12.167724317042
1246	716694	12	4.7046452206559
1246	932654	13	9.458805388771
1246	1188086	14	13.30529700486
1247	716694	12	3.0885189122055
1247	932654	13	6.2960627521388
1247	1188086	14	9.5404234081507
1248	716694	12	2.0804324161028
1248	932654	13	4.2229153065477
1248	1188086	14	5.8428582238499
1249	716694	12	2.1391421225853
1249	932654	13	3.5215398799861
1249	1188086	14	4.9035336363828
1250	716694	12	0.90952757539225
1250	932654	13	3.4575369281508
1250	1188086	14	5.6429444110999
1251	716694	12	1.7519983589882
1251	932654	13	4.3092266204068
1251	1188086	14	5.9667342980625
1252	716694	12	2.4572802008828
1252	932654	13	4.8388249266194
1252	1188086	14	6.1390737781767
1253	716694	12	0.74429256379113
1253	932654	13	0.83146379329264
1253	1188086	14	1.2051253236778
1254	716694	12	0.30796540651236
1254	932654	13	0.56695288710557
1254	1188086	14	1.3282064620095
1255	716694	12	0.97772175924749
1255	932654	13	0.80808053494871
1255	1188086	14	0.98921257934611
1256	716694	12	0.97723592237647
1256	932654	13	1.1002720401545
1256	1188086	14	0.87414467545588
1257	716694	12	1.3216639220546
1257	932654	13	1.2033284493049
1257	1188086	14	1.1566154594119
1258	716694	12	1.0718611861295
1258	932654	13	1.1802752225776
1258	1188086	14	1.3476505663776
1259	932654	13	2953.7205102717
1259	1188086	14	2953.7205102717
1260	932654	13	6321.0790390987
1260	1188086	14	6321.0790390987
1261	932654	13	2504.0828571429
1261	1188086	14	2504.0828571429
1262	932654	13	7150.6
1262	1188086	14	7150.6
1263	932654	13	2609.5071428571
1263	1188086	14	2609.5071428571
1264	932654	13	6750.6314285714
1264	1188086	14	6750.6314285714
1265	932654	13	2786.3137735564
1265	1188086	14	2786.3137735564
1266	932654	13	6127.1556924654
1266	1188086	14	6127.1556924654
1267	932654	13	2830.0205785738
1267	1188086	14	2830.0205785738
1268	932654	13	6198.4847197822
1268	1188086	14	6198.4847197822
1269	932654	13	3229.7611419244
1269	1188086	14	3229.7611419244
1270	932654	13	6593.2547320077
1270	1188086	14	6593.2547320077
1271	932654	13	2727.8260206004
1271	1188086	14	2727.8260206004
1272	932654	13	7047.6525561091
1272	1188086	14	7047.6525561091
1273	932654	13	1907.0816412415
1273	1188086	14	1907.0816412415
1274	932654	13	6924.4162467123
1274	1188086	14	6924.4162467123
1275	932654	13	2079.0761662198
1275	1188086	14	2079.0761662198
1276	932654	13	6953.7880160858
1276	1188086	14	6953.7880160858
1277	932654	13	2937.2238099705
1277	1188086	14	2937.2238099705
1278	932654	13	6637.8242912051
1278	1188086	14	6637.8242912051
1279	932654	13	2838.9981454303
1279	1188086	14	2838.9981454303
1280	932654	13	6523.7162108072
1280	1188086	14	6523.7162108072
1281	932654	13	1911.3706696076
1281	1188086	14	1911.3706696076
1282	932654	13	7148.3571429746
1282	1188086	14	7148.3571429746
1283	932654	13	3531.3693984276
1283	1188086	14	3531.3693984276
1284	932654	13	6623.2806236149
1284	1188086	14	6623.2806236149
1285	932654	13	2446.0508786141
1285	1188086	14	2446.0508786141
1286	932654	13	6493.0961401677
1286	1188086	14	6493.0961401677
1287	932654	13	2896.1043353146
1287	1188086	14	2896.1043353146
1288	932654	13	6828.8182438117
1288	1188086	14	6828.8182438117
1289	932654	13	2783.9369534991
1289	1188086	14	2783.9369534991
1290	932654	13	6129.5432096079
1290	1188086	14	6129.5432096079
1291	932654	13	2359.4155086258
1291	1188086	14	2359.4155086258
1292	932654	13	6670.4489753123
1292	1188086	14	6670.4489753123
1293	932654	13	2073.6393212689
1293	1188086	14	2073.6393212689
1294	932654	13	6724.5230783211
1294	1188086	14	6724.5230783211
1295	932654	13	2062.6130670455
1295	1188086	14	2062.6130670455
1296	932654	13	7065.7748647727
1296	1188086	14	7065.7748647727
1297	932654	13	2128.9499884097
1297	1188086	14	2128.9499884097
1298	932654	13	6726.9651653254
1298	1188086	14	6726.9651653254
1299	932654	13	2451.3153006146
1299	1188086	14	2451.3153006146
1300	932654	13	7049.8590370197
1300	1188086	14	7049.8590370197
1301	932654	13	2269.5284394808
1301	1188086	14	2269.5284394808
1302	932654	13	6521.2538937519
1302	1188086	14	6521.2538937519
1303	932654	13	2580.38476168
1303	1188086	14	2580.38476168
1304	932654	13	6804.9039499764
1304	1188086	14	6804.9039499764
1305	932654	13	2462.9541685979
1305	1188086	14	2462.9541685979
1306	932654	13	6674.5090999548
1306	1188086	14	6674.5090999548
1307	932654	13	0.81617693938315
1307	1188086	14	0.61524680647999
1308	932654	13	1.5872791213314
1308	1188086	14	1.6148320853755
1309	932654	13	0.89392319801264
1309	1188086	14	0.62779457936995
1310	932654	13	1.6012773480446
1310	1188086	14	1.608020620511
1311	932654	13	0.88754313974641
1311	1188086	14	1.1279278941918
1312	932654	13	1.6369838022582
1312	1188086	14	2.1163992306701
1313	932654	13	0.67356072287075
1313	1188086	14	1.09477675776
1314	932654	13	1.4615561143807
1314	1188086	14	1.9740097496036
1315	932654	13	4.3514982783236
1315	1188086	14	1.9228533130232
1316	932654	13	11.429744670455
1316	1188086	14	7.0040847712903
1317	932654	13	3.8334479432087
1317	1188086	14	4.0221963941585
1318	932654	13	8.7979344284974
1318	1188086	14	13.358695826743
1319	932654	13	3.9175264583901
1319	1188086	14	3.5491504756361
1320	932654	13	9.7219010191502
1320	1188086	14	12.270994580236
1321	932654	13	4.754160168115
1321	1188086	14	3.8464916160889
1322	932654	13	12.481921105154
1322	1188086	14	14.303511199819
1323	932654	13	3.2075438399334
1323	1188086	14	3.2443606560118
1324	932654	13	6.3037480965092
1324	1188086	14	9.1100191467087
1325	932654	13	2.1424828904448
1325	1188086	14	1.6199429173023
1326	932654	13	3.5011234729045
1326	1188086	14	3.6913745584219
1327	932654	13	1.3823977574008
1327	1188086	14	1.3819937563967
1328	932654	13	2.4571420941815
1328	1188086	14	2.9906116170411
1329	932654	13	2.5480093527585
1329	1188086	14	2.1854074829491
1330	932654	13	3.403780488641
1330	1188086	14	4.3708589863537
1331	932654	13	2.5572282614186
1331	1188086	14	1.6575076776557
1332	932654	13	3.9810111806249
1332	1188086	14	3.8009268542972
1333	932654	13	2.3815447257366
1333	1188086	14	1.3002488515573
1334	932654	13	4.1311457900171
1334	1188086	14	3.3512626896682
1335	932654	13	0.087171229501514
1335	1188086	14	0.37366153038521
1336	932654	13	1.1676305271873
1336	1188086	14	1.2768213928981
1337	932654	13	0.25898748059321
1337	1188086	14	0.76125357490393
1338	932654	13	1.1727535639558
1338	1188086	14	1.4179646977399
1339	932654	13	-0.16964122429878
1339	1188086	14	0.1811320443974
1340	932654	13	0.973
1340	1188086	14	1.2009909575907
1341	932654	13	0.123036117778
1341	1188086	14	-0.22612736469859
1342	932654	13	1.1958251120308
1342	1188086	14	0.973
1343	932654	13	-0.1183354727497
1343	1188086	14	-0.046712989893017
1344	932654	13	0.973
1344	1188086	14	1.1529170842491
1345	932654	13	0.10841403644817
1345	1188086	14	0.1673753438
1346	932654	13	1.197926339063
1346	1188086	14	1.229597563343
1347	932654	13	1.1976837883238
1347	1188086	14	2.0987760494929
1348	932654	13	0.75189817431383
1348	1188086	14	1.9008525276091
1349	932654	13	3.0878056779038
1349	1188086	14	7.2242979230359
1350	932654	13	3.1886488592718
1350	1188086	14	8.8662311586086
1351	932654	13	4.4578365781344
1351	1188086	14	7.4655282015447
1352	932654	13	5.5204641411547
1352	1188086	14	10.175356609281
1353	932654	13	4.4268605830148
1353	1188086	14	9.1028961706907
1354	932654	13	5.6042902562767
1354	1188086	14	11.466249530436
1355	932654	13	5.7075198430102
1355	1188086	14	10.618855850771
1356	932654	13	4.5618463328574
1356	1188086	14	8.0599013906904
1357	932654	13	4.193312472431
1357	1188086	14	8.4201163309626
1358	932654	13	0.77654616536657
1358	1188086	14	2.1303205583948
1359	932654	13	2.1589188868666
1359	1188086	14	4.9852282874042
1360	932654	13	1.3278881882783
1360	1188086	14	3.2813243045239
1361	932654	13	2.046270263521
1361	1188086	14	4.432435330376
1362	932654	13	2.0109774767421
1362	1188086	14	4.5608530619647
1363	932654	13	1.4925901825773
1363	1188086	14	4.0337853480596
1364	932654	13	2.1813774583163
1364	1188086	14	4.6873219779227
1365	932654	13	2.3393291867804
1365	1188086	14	3.7971487004543
1366	932654	13	2.2394576482475
1366	1188086	14	3.7137285380857
1367	932654	13	1.2270292837962
1367	1188086	14	1.0438092028683
1368	932654	13	1.0444650715928
1368	1188086	14	0.87785146056881
1369	932654	13	0.96598012799708
1369	1188086	14	1.0744938494301
1370	932654	13	1.2284235742603
1370	1188086	14	1.0521071862766
1371	932654	13	1.2648750230761
1371	1188086	14	0.78695240501677
1372	932654	13	0.91545837106726
1372	1188086	14	1.2906204991547
1373	932654	13	1.1142056745787
1373	1188086	14	1.1629883293709
1374	932654	13	1.2077052081521
1374	1188086	14	0.71962431247812
1375	932654	13	1.356384476498
1375	1188086	14	0.9945513858434
1376	932654	13	1.2237028073752
1376	1188086	14	2.2075360139948
1377	932654	13	0.91946915324079
1377	1188086	14	2.1075419420376
1378	1188086	14	2211.7789599405
1379	1188086	14	7465.380155599
1380	1188086	14	1860.7331729785
1381	1188086	14	6566.573111566
1382	1188086	14	2369.69
1383	1188086	14	6747.5944235083
1384	1188086	14	2340.0933194527
1385	1188086	14	6659.8501546698
1386	1188086	14	2053.390294078
1387	1188086	14	6494.9336343329
1388	1188086	14	2677.2759515214
1389	1188086	14	6671.5076843734
1390	1188086	14	2951.8878723815
1391	1188086	14	6539.9199917605
1392	1188086	14	2870.7288881702
1393	1188086	14	6206.0050033276
1394	1188086	14	3224.162410455
1395	1188086	14	6463.0572894482
1396	1188086	14	2261.0876799899
1397	1188086	14	6743.1917904426
1398	1188086	14	2361.0663026274
1399	1188086	14	6397.8122612645
1400	1188086	14	2761.1742423304
1401	1188086	14	6948.5067384505
1402	1188086	14	1725.5198600952
1403	1188086	14	6972.9805613605
1404	1188086	14	2278.1166280901
1405	1188086	14	6114.2831611357
1406	1188086	14	2851.020307552
1407	1188086	14	6205.6904885906
1408	1188086	14	2315.170356811
1409	1188086	14	6433.1247783564
1410	1188086	14	2887.4495592118
1411	1188086	14	6536.6078385601
1412	1188086	14	2329.3600576956
1413	1188086	14	6237.4572736295
1414	1188086	14	2273.3036842405
1415	1188086	14	6111.1308328771
1416	1188086	14	2012.6174508391
1417	1188086	14	6730.7921136621
1418	1188086	14	2403.3444718829
1419	1188086	14	6753.954228866
1420	1188086	14	2192.5000310034
1421	1188086	14	6497.4338895152
1422	1188086	14	2249.731092437
1423	1188086	14	6511.1871308523
1424	1188086	14	0.90109226116911
1425	1188086	14	1.6678759787543
1426	1188086	14	1.1489543532953
1427	1188086	14	1.7286738675382
1428	1188086	14	4.1364922451321
1429	1188086	14	8.6951944386733
1430	1188086	14	5.6775822993368
1431	1188086	14	13.733733211659
1432	1188086	14	3.0076916234102
1433	1188086	14	6.9199901072242
1434	1188086	14	4.6548924681265
1435	1188086	14	13.113194567151
1436	1188086	14	4.6760355876759
1437	1188086	14	11.877081656877
1438	1188086	14	5.8619592741597
1439	1188086	14	18.00113498773
1440	1188086	14	4.9113360077608
1441	1188086	14	14.301683882543
1442	1188086	14	3.498055057833
1443	1188086	14	8.3419269574204
1444	1188086	14	4.2268038585316
1445	1188086	14	10.148567483819
1446	1188086	14	1.3537743930282
1447	1188086	14	1.9086973735526
1448	1188086	14	2.8263094005376
1449	1188086	14	4.7575739450541
1450	1188086	14	1.9534361162456
1451	1188086	14	2.816330493795
1452	1188086	14	2.386165066855
1453	1188086	14	3.8808070817645
1454	1188086	14	2.5498755852226
1455	1188086	14	4.1415152213556
1456	1188086	14	2.5411951654823
1457	1188086	14	3.7810563667935
1458	1188086	14	2.5059445196064
1459	1188086	14	4.1764567458005
1460	1188086	14	1.4578195136739
1461	1188086	14	2.6323014160054
1462	1188086	14	1.4742708898382
1463	1188086	14	2.6133669038948
1464	1188086	14	-0.18322008092784
1465	1188086	14	0.973
1466	1188086	14	-0.16661361102403
1467	1188086	14	0.973
1468	1188086	14	0.10851372143305
1469	1188086	14	1.1900481388922
1470	1188086	14	-0.17631638798371
1471	1188086	14	0.973
1472	1188086	14	-0.47792261805929
1473	1188086	14	0.973
1474	1188086	14	0.37516212808744
1475	1188086	14	1.289148383763
1476	1188086	14	0.048782654792174
1477	1188086	14	1.1799206797254
1478	1188086	14	-0.488080895674
1479	1188086	14	0.973
1480	1188086	14	-0.36183309065463
1481	1188086	14	0.973
1482	1188086	14	0.9838332066196
1483	1188086	14	1.7409005143876
1484	1188086	14	1.1880727887969
1485	1188086	14	1.8159756838424
1486	1188086	14	1.0533743559849
1487	1188086	14	0.76095348712988
1488	1188086	14	4.2378740643617
1489	1188086	14	3.5712198608089
1490	1188086	14	5.0211911110673
1491	1188086	14	5.2007762831636
1492	1188086	14	5.0503723060247
1493	1188086	14	3.9278312548828
1494	1188086	14	4.927959359251
1495	1188086	14	0.91846087543392
1496	1188086	14	1.9976527730003
1497	1188086	14	1.3283761750674
1498	1188086	14	1.4896506519523
1499	1188086	14	1.907530841371
1500	1188086	14	2.212256252626
1501	1188086	14	1.1163676618404
1502	1188086	14	0.83583557878026
1503	1188086	14	1.2471721814816
1504	1188086	14	1.0785576677234
1505	1188086	14	0.75349252454341
1506	1188086	14	1.088140658491
1507	1188086	14	1.1529469566691
1508	1188086	14	0.76253995853476
1509	1188086	14	1.0031426421367

